CHEMBL59990
     RDKit          2D

 21 21  0  0  0  0  0  0  0  0999 V2000
    2.6491   -0.9642    0.0000 O   0  0  0  0  0  0  0  0  0  0  0  0
    1.5000    0.0000    0.0000 P   0  0  0  0  0  0  0  0  0  0  0  0
    2.6491    0.9642    0.0000 N   0  0  0  0  0  0  0  0  0  0  0  0
    4.0586    0.4512    0.0000 C   0  0  0  0  0  0  0  0  0  0  0  0
    5.2077    1.4153    0.0000 C   0  0  0  0  0  0  0  0  0  0  0  0
    6.6172    0.9023    0.0000 Cl  0  0  0  0  0  0  0  0  0  0  0  0
    2.3886    2.4414    0.0000 C   0  0  0  0  0  0  0  0  0  0  0  0
    3.5377    3.4056    0.0000 C   0  0  0  0  0  0  0  0  0  0  0  0
    3.2772    4.8828    0.0000 Cl  0  0  0  0  0  0  0  0  0  0  0  0
    0.7500   -1.2990    0.0000 N   0  0  0  0  0  0  0  0  0  0  0  0
   -0.7500   -1.2990    0.0000 C   0  0  0  0  0  0  0  0  0  0  0  0
   -1.5000   -2.5981    0.0000 S   0  0  0  0  0  0  0  0  0  0  0  0
   -3.0000   -2.5981    0.0000 C   0  0  0  0  0  0  0  0  0  0  0  0
   -3.7500   -3.8971    0.0000 C   0  0  0  0  0  0  0  0  0  0  0  0
   -5.2500   -3.8971    0.0000 S   0  0  0  0  0  0  0  0  0  0  0  0
   -6.7500   -3.8971    0.0000 O   0  0  0  0  0  0  0  0  0  0  0  0
   -5.2500   -5.3971    0.0000 O   0  0  0  0  0  0  0  0  0  0  0  0
   -5.2500   -2.3971    0.0000 O   0  0  0  0  0  0  0  0  0  0  0  0
   -1.5000    0.0000    0.0000 C   0  0  0  0  0  0  0  0  0  0  0  0
   -0.7500    1.2990    0.0000 C   0  0  0  0  0  0  0  0  0  0  0  0
    0.7500    1.2990    0.0000 O   0  0  0  0  0  0  0  0  0  0  0  0
  1  2  2  0
  2  3  1  0
  3  4  1  0
  4  5  1  0
  5  6  1  0
  3  7  1  0
  7  8  1  0
  8  9  1  0
  2 10  1  0
 10 11  1  0
 11 12  1  0
 12 13  1  0
 13 14  1  0
 14 15  1  0
 15 16  2  0
 15 17  2  0
 15 18  1  0
 11 19  1  0
 19 20  1  0
 20 21  1  0
 21  2  1  0
M  END
>  <Synonyms>  (1) 
MAFOSFAMIDE

>  <Research Codes>  (1) 
nan

>  <Phase>  (1) 
1

>  <Applicants>  (1) 
nan

>  <USAN Stem>  (1) 
'-fos-; -fosfamide'

>  <USAN Year>  (1) 
nan

>  <USAN Stem Definition>  (1) 
phosphoro-derivatives; isophosphoramide mustard derivatives

>  <USAN Stem Substem>  (1) 
'-fos-(-fos-); -fosfamide(-fosfamide)'

>  <First Approval>  (1) 
nan

>  <ATC Codes>  (1) 
nan

>  <Level 4 ATC Codes>  (1) 
nan

>  <Level 3 ATC Codes>  (1) 
nan

>  <Level 2 ATC Codes>  (1) 
nan

>  <Level 1 ATC Codes>  (1) 
nan

>  <Indication Class>  (1) 
nan

>  <Patent>  (1) 
nan

>  <Drug Type>  (1) 
1:Synthetic Small Molecule

>  <Passes Rule of Five>  (1) 
True

>  <First In Class>  (1) 
False

>  <Chirality>  (1) 
Racemic Mixture

>  <Prodrug>  (1) 
False

>  <Oral>  (1) 
False

>  <Parenteral>  (1) 
False

>  <Topical>  (1) 
False

>  <Black Box>  (1) 
False

>  <Availability Type>  (1) 
Unknown

>  <Withdrawn Year>  (1) 
nan

>  <Withdrawn Reason>  (1) 
nan

>  <Withdrawn Country>  (1) 
nan

>  <Withdrawn Class>  (1) 
nan

>  <SMILES>  (1) 
O=P1(N(CCCl)CCCl)NC(SCCS(=O)(=O)O)CCO1

>  <InChi Key>  (1) 
PBUUPFTVAPUWDE-UHFFFAOYSA-N

$$$$
CHEMBL496748
     RDKit          2D

 30 30  0  0  0  0  0  0  0  0999 V2000
   18.7500    1.2990    0.0000 O   0  0  0  0  0  0  0  0  0  0  0  0
   17.2500    1.2990    0.0000 C   0  0  0  0  0  0  0  0  0  0  0  0
   16.5000    2.5981    0.0000 O   0  0  0  0  0  0  0  0  0  0  0  0
   16.5000    0.0000    0.0000 C   0  0  0  0  0  0  0  0  0  0  0  0
   15.0000    0.0000    0.0000 C   0  0  0  0  0  0  0  0  0  0  0  0
   14.2500   -1.2990    0.0000 C   0  0  0  0  0  0  0  0  0  0  0  0
   12.7500   -1.2990    0.0000 N   0  0  0  0  0  0  0  0  0  0  0  0
   12.0000   -2.5981    0.0000 C   0  0  0  0  0  0  0  0  0  0  0  0
   12.7500   -3.8971    0.0000 O   0  0  0  0  0  0  0  0  0  0  0  0
   10.5000   -2.5981    0.0000 N   0  0  0  0  0  0  0  0  0  0  0  0
    9.7500   -3.8971    0.0000 C   0  0  0  0  0  0  0  0  0  0  0  0
    8.2500   -3.8971    0.0000 C   0  0  0  0  0  0  0  0  0  0  0  0
    7.5000   -2.5981    0.0000 C   0  0  0  0  0  0  0  0  0  0  0  0
    6.0000   -2.5981    0.0000 C   0  0  0  0  0  0  0  0  0  0  0  0
    5.2500   -1.2990    0.0000 C   0  0  0  0  0  0  0  0  0  0  0  0
    3.7500   -1.2990    0.0000 N   0  0  0  0  0  0  0  0  0  0  0  0
    3.0000    0.0000    0.0000 C   0  0  0  0  0  0  0  0  0  0  0  0
    1.5000    0.0000    0.0000 C   0  0  0  0  0  0  0  0  0  0  0  0
    0.7500   -1.2990    0.0000 C   0  0  0  0  0  0  0  0  0  0  0  0
   -0.7500   -1.2990    0.0000 C   0  0  0  0  0  0  0  0  0  0  0  0
   -1.5000    0.0000    0.0000 C   0  0  0  0  0  0  0  0  0  0  0  0
   -3.0000    0.0000    0.0000 I   0  0  0  0  0  0  0  0  0  0  0  0
   -0.7500    1.2990    0.0000 C   0  0  0  0  0  0  0  0  0  0  0  0
    0.7500    1.2990    0.0000 C   0  0  0  0  0  0  0  0  0  0  0  0
   10.5000   -5.1962    0.0000 C   0  0  0  0  0  0  0  0  0  0  0  0
   12.0000   -5.1962    0.0000 O   0  0  0  0  0  0  0  0  0  0  0  0
    9.7500   -6.4952    0.0000 O   0  0  0  0  0  0  0  0  0  0  0  0
   15.0000   -2.5981    0.0000 C   0  0  0  0  0  0  0  0  0  0  0  0
   16.5000   -2.5981    0.0000 O   0  0  0  0  0  0  0  0  0  0  0  0
   14.2500   -3.8971    0.0000 O   0  0  0  0  0  0  0  0  0  0  0  0
  1  2  2  0
  2  3  1  0
  2  4  1  0
  4  5  1  0
  5  6  1  0
  6  7  1  0
  7  8  1  0
  8  9  2  0
  8 10  1  0
 10 11  1  0
 11 12  1  0
 12 13  1  0
 13 14  1  0
 14 15  1  0
 15 16  1  0
 16 17  1  0
 17 18  1  0
 18 19  2  0
 19 20  1  0
 20 21  2  0
 21 22  1  0
 21 23  1  0
 23 24  2  0
 11 25  1  0
 25 26  2  0
 25 27  1  0
  6 28  1  0
 28 29  2  0
 28 30  1  0
 24 18  1  0
M  END
>  <Synonyms>  (2) 
IOFOLASTAT

>  <Research Codes>  (2) 
nan

>  <Phase>  (2) 
1

>  <Applicants>  (2) 
nan

>  <USAN Stem>  (2) 
'-stat; io-'

>  <USAN Year>  (2) 
2010.0

>  <USAN Stem Definition>  (2) 
enzyme inhibitors: folate hydrolose (also called PSMA) inhibitors; iodine-containing contrast media

>  <USAN Stem Substem>  (2) 
'-stat(-stat (-folastat)); io-(io-)'

>  <First Approval>  (2) 
nan

>  <ATC Codes>  (2) 
nan

>  <Level 4 ATC Codes>  (2) 
nan

>  <Level 3 ATC Codes>  (2) 
nan

>  <Level 2 ATC Codes>  (2) 
nan

>  <Level 1 ATC Codes>  (2) 
nan

>  <Indication Class>  (2) 
nan

>  <Patent>  (2) 
nan

>  <Drug Type>  (2) 
1:Synthetic Small Molecule

>  <Passes Rule of Five>  (2) 
False

>  <First In Class>  (2) 
False

>  <Chirality>  (2) 
Single Stereoisomer

>  <Prodrug>  (2) 
False

>  <Oral>  (2) 
False

>  <Parenteral>  (2) 
False

>  <Topical>  (2) 
False

>  <Black Box>  (2) 
False

>  <Availability Type>  (2) 
Unknown

>  <Withdrawn Year>  (2) 
nan

>  <Withdrawn Reason>  (2) 
nan

>  <Withdrawn Country>  (2) 
nan

>  <Withdrawn Class>  (2) 
nan

>  <SMILES>  (2) 
O=C(O)CC[C@H](NC(=O)N[C@@H](CCCCNCc1ccc(I)cc1)C(=O)O)C(=O)O

>  <InChi Key>  (2) 
OXUUJYOSVPMNKP-UHFFFAOYSA-N

$$$$
CHEMBL1206245
     RDKit          2D

 31 32  0  0  0  0  0  0  0  0999 V2000
    3.7500   -1.2990    0.0000 C   0  0  0  0  0  0  0  0  0  0  0  0
    3.0000    0.0000    0.0000 O   0  0  0  0  0  0  0  0  0  0  0  0
    1.5000    0.0000    0.0000 C   0  0  0  0  0  0  0  0  0  0  0  0
    0.7500   -1.2990    0.0000 C   0  0  0  0  0  0  0  0  0  0  0  0
   -0.7500   -1.2990    0.0000 C   0  0  0  0  0  0  0  0  0  0  0  0
   -1.5000   -2.5981    0.0000 O   0  0  0  0  0  0  0  0  0  0  0  0
   -0.7500   -3.8971    0.0000 C   0  0  0  0  0  0  0  0  0  0  0  0
   -1.5000    0.0000    0.0000 C   0  0  0  0  0  0  0  0  0  0  0  0
   -3.0000    0.0000    0.0000 C   0  0  0  0  0  0  0  0  0  0  0  0
   -3.7500    1.2990    0.0000 C   0  0  0  0  0  0  0  0  0  0  0  0
   -5.2500    1.2990    0.0000 S   0  0  0  0  0  0  0  0  0  0  0  0
   -5.2500   -0.2010    0.0000 O   0  0  0  0  0  0  0  0  0  0  0  0
   -5.2500    2.7990    0.0000 O   0  0  0  0  0  0  0  0  0  0  0  0
   -6.7500    1.2990    0.0000 C   0  0  0  0  0  0  0  0  0  0  0  0
   -7.5000   -0.0000    0.0000 C   0  0  0  0  0  0  0  0  0  0  0  0
   -9.0000   -0.0000    0.0000 C   0  0  0  0  0  0  0  0  0  0  0  0
   -9.7500   -1.2990    0.0000 C   0  0  0  0  0  0  0  0  0  0  0  0
   -9.0000   -2.5981    0.0000 C   0  0  0  0  0  0  0  0  0  0  0  0
   -9.7500   -3.8971    0.0000 O   0  0  0  0  0  0  0  0  0  0  0  0
  -11.2500   -3.8971    0.0000 C   0  0  0  0  0  0  0  0  0  0  0  0
   -7.5000   -2.5981    0.0000 C   0  0  0  0  0  0  0  0  0  0  0  0
   -6.7500   -3.8971    0.0000 O   0  0  0  0  0  0  0  0  0  0  0  0
   -5.2500   -3.8971    0.0000 P   0  0  0  0  0  7  0  0  0  0  0  0
   -5.2500   -5.3971    0.0000 O   0  0  0  0  0  0  0  0  0  0  0  0
   -5.2500   -2.3971    0.0000 O   0  0  0  0  0  0  0  0  0  0  0  0
   -3.7500   -3.8971    0.0000 O   0  0  0  0  0  0  0  0  0  0  0  0
   -6.7500   -1.2990    0.0000 C   0  0  0  0  0  0  0  0  0  0  0  0
   -0.7500    1.2990    0.0000 C   0  0  0  0  0  0  0  0  0  0  0  0
   -1.5000    2.5981    0.0000 O   0  0  0  0  0  0  0  0  0  0  0  0
   -0.7500    3.8971    0.0000 C   0  0  0  0  0  0  0  0  0  0  0  0
    0.7500    1.2990    0.0000 C   0  0  0  0  0  0  0  0  0  0  0  0
  1  2  1  0
  2  3  1  0
  3  4  2  0
  4  5  1  0
  5  6  1  0
  6  7  1  0
  5  8  2  0
  8  9  1  0
  9 10  2  0
 10 11  1  0
 11 12  2  0
 11 13  2  0
 11 14  1  0
 14 15  1  0
 15 16  2  0
 16 17  1  0
 17 18  2  0
 18 19  1  0
 19 20  1  0
 18 21  1  0
 21 22  1  0
 22 23  1  0
 23 24  2  0
 23 25  2  0
 23 26  1  0
 21 27  2  0
  8 28  1  0
 28 29  1  0
 29 30  1  0
 28 31  2  0
 31  3  1  0
 27 15  1  0
M  END
>  <Synonyms>  (3) 
BRICICLIB|ON 014185|ON-013105|ON-014185

>  <Research Codes>  (3) 
ON 014185|ON-014185

>  <Phase>  (3) 
1

>  <Applicants>  (3) 
nan

>  <USAN Stem>  (3) 
'-ciclib'

>  <USAN Year>  (3) 
2013.0

>  <USAN Stem Definition>  (3) 
cyclin dependent kinase inhibitors

>  <USAN Stem Substem>  (3) 
'-ciclib(-ciclib)'

>  <First Approval>  (3) 
nan

>  <ATC Codes>  (3) 
nan

>  <Level 4 ATC Codes>  (3) 
nan

>  <Level 3 ATC Codes>  (3) 
nan

>  <Level 2 ATC Codes>  (3) 
nan

>  <Level 1 ATC Codes>  (3) 
nan

>  <Indication Class>  (3) 
nan

>  <Patent>  (3) 
nan

>  <Drug Type>  (3) 
1:Synthetic Small Molecule

>  <Passes Rule of Five>  (3) 
True

>  <First In Class>  (3) 
False

>  <Chirality>  (3) 
Achiral Molecule

>  <Prodrug>  (3) 
False

>  <Oral>  (3) 
False

>  <Parenteral>  (3) 
False

>  <Topical>  (3) 
False

>  <Black Box>  (3) 
False

>  <Availability Type>  (3) 
Unknown

>  <Withdrawn Year>  (3) 
nan

>  <Withdrawn Reason>  (3) 
nan

>  <Withdrawn Country>  (3) 
nan

>  <Withdrawn Class>  (3) 
nan

>  <SMILES>  (3) 
COc1cc(OC)c(/C=C/S(=O)(=O)Cc2ccc(OC)c(OP(=O)(O)O)c2)c(OC)c1

>  <InChi Key>  (3) 
VSVFLGPUZJTBSD-BQYQJAHWSA-N

$$$$
CHEMBL146927
     RDKit          2D

 12 12  0  0  0  0  0  0  0  0999 V2000
    2.7760    0.0000    0.0000 N   0  0  0  0  0  0  0  0  0  0  0  0
    1.2760    0.0000    0.0000 C   0  0  0  0  0  0  0  0  0  0  0  0
    0.3943    1.2135    0.0000 C   0  0  0  0  0  0  0  0  0  0  0  0
   -1.0323    0.7500    0.0000 C   0  0  0  0  0  0  0  0  0  0  0  0
   -2.2458    1.6317    0.0000 C   0  0  0  0  0  0  0  0  0  0  0  0
   -3.6161    1.0216    0.0000 O   0  0  0  0  0  0  0  0  0  0  0  0
   -2.0890    3.1235    0.0000 O   0  0  0  0  0  0  0  0  0  0  0  0
   -1.0323   -0.7500    0.0000 C   0  0  0  0  0  0  0  0  0  0  0  0
    0.3943   -1.2135    0.0000 C   0  0  0  0  0  0  0  0  0  0  0  0
    0.8578   -2.6401    0.0000 C   0  0  0  0  0  0  0  0  0  0  0  0
   -0.1459   -3.7548    0.0000 F   0  0  0  0  0  0  0  0  0  0  0  0
    2.3250   -2.9520    0.0000 F   0  0  0  0  0  0  0  0  0  0  0  0
  2  1  1  6
  2  3  1  0
  3  4  1  0
  4  5  1  0
  5  6  2  0
  5  7  1  0
  4  8  1  0
  8  9  1  0
  9 10  2  3
 10 11  1  0
 10 12  1  0
  9  2  1  0
M  END
>  <Synonyms>  (4) 
nan

>  <Research Codes>  (4) 
nan

>  <Phase>  (4) 
1

>  <Applicants>  (4) 
nan

>  <USAN Stem>  (4) 
nan

>  <USAN Year>  (4) 
nan

>  <USAN Stem Definition>  (4) 
nan

>  <USAN Stem Substem>  (4) 
nan

>  <First Approval>  (4) 
nan

>  <ATC Codes>  (4) 
nan

>  <Level 4 ATC Codes>  (4) 
nan

>  <Level 3 ATC Codes>  (4) 
nan

>  <Level 2 ATC Codes>  (4) 
nan

>  <Level 1 ATC Codes>  (4) 
nan

>  <Indication Class>  (4) 
nan

>  <Patent>  (4) 
nan

>  <Drug Type>  (4) 
1:Synthetic Small Molecule

>  <Passes Rule of Five>  (4) 
True

>  <First In Class>  (4) 
False

>  <Chirality>  (4) 
Single Stereoisomer

>  <Prodrug>  (4) 
False

>  <Oral>  (4) 
False

>  <Parenteral>  (4) 
False

>  <Topical>  (4) 
False

>  <Black Box>  (4) 
False

>  <Availability Type>  (4) 
Unknown

>  <Withdrawn Year>  (4) 
nan

>  <Withdrawn Reason>  (4) 
nan

>  <Withdrawn Country>  (4) 
nan

>  <Withdrawn Class>  (4) 
nan

>  <SMILES>  (4) 
N[C@H]1C[C@@H](C(=O)O)CC1=C(F)F

>  <InChi Key>  (4) 
CBSRETZPFOBWNG-PVPKANODSA-N

$$$$
CHEMBL1187120
     RDKit          2D

 26 28  0  0  0  0  0  0  0  0999 V2000
    8.1129   -3.6696    0.0000 C   0  0  0  0  0  0  0  0  0  0  0  0
    6.6505   -4.0034    0.0000 N   0  0  0  0  0  0  0  0  0  0  0  0
    5.6303   -2.9038    0.0000 C   0  0  0  0  0  0  0  0  0  0  0  0
    4.1679   -3.2376    0.0000 C   0  0  0  0  0  0  0  0  0  0  0  0
    3.1476   -2.1380    0.0000 C   0  0  0  0  0  0  0  0  0  0  0  0
    1.6852   -2.4718    0.0000 C   0  0  0  0  0  0  0  0  0  0  0  0
    0.7500   -1.2990    0.0000 C   0  0  0  0  0  0  0  0  0  0  0  0
    1.5000    0.0000    0.0000 C   0  0  0  0  0  0  0  0  0  0  0  0
    0.7500    1.2990    0.0000 C   0  0  0  0  0  0  0  0  0  0  0  0
   -0.7500    1.2990    0.0000 C   0  0  0  0  0  0  0  0  0  0  0  0
   -1.5000    0.0000    0.0000 C   0  0  0  0  0  0  0  0  0  0  0  0
   -0.7500   -1.2990    0.0000 C   0  0  0  0  0  0  0  0  0  0  0  0
   -1.6852   -2.4718    0.0000 C   0  0  0  0  0  0  0  0  0  0  0  0
   -1.3515   -3.9342    0.0000 C   0  0  0  0  0  0  0  0  0  0  0  0
   -0.0000   -4.5850    0.0000 C   0  0  0  0  0  0  0  0  0  0  0  0
   -0.1121   -6.0808    0.0000 C   0  0  0  0  0  0  0  0  0  0  0  0
    1.1273   -6.9258    0.0000 C   0  0  0  0  0  0  0  0  0  0  0  0
    2.4787   -6.2750    0.0000 C   0  0  0  0  0  0  0  0  0  0  0  0
    2.5908   -4.7792    0.0000 C   0  0  0  0  0  0  0  0  0  0  0  0
    1.3515   -3.9342    0.0000 C   0  0  0  0  0  0  0  0  0  0  0  0
    6.2084   -5.4367    0.0000 C   0  0  0  0  0  0  0  0  0  0  0  0
    4.7460   -5.7705    0.0000 O   0  0  0  0  0  0  0  0  0  0  0  0
    7.2287   -6.5363    0.0000 C   0  0  0  0  0  0  0  0  0  0  0  0
    6.7865   -7.9697    0.0000 C   0  0  0  0  0  0  0  0  0  0  0  0
    7.8068   -9.0693    0.0000 C   0  0  0  0  0  0  0  0  0  0  0  0
    7.3647  -10.5026    0.0000 N   0  0  0  0  0  0  0  0  0  0  0  0
  1  2  1  0
  2  3  1  0
  3  4  1  0
  4  5  1  0
  5  6  2  3
  6  7  1  0
  7  8  2  0
  8  9  1  0
  9 10  2  0
 10 11  1  0
 11 12  2  0
 12 13  1  0
 13 14  1  0
 14 15  1  0
 15 16  2  0
 16 17  1  0
 17 18  2  0
 18 19  1  0
 19 20  2  0
  2 21  1  0
 21 22  2  0
 21 23  1  0
 23 24  1  0
 24 25  1  0
 25 26  1  0
 20  6  1  0
 12  7  1  0
 20 15  1  0
M  END
>  <Synonyms>  (5) 
nan

>  <Research Codes>  (5) 
nan

>  <Phase>  (5) 
1

>  <Applicants>  (5) 
nan

>  <USAN Stem>  (5) 
nan

>  <USAN Year>  (5) 
nan

>  <USAN Stem Definition>  (5) 
nan

>  <USAN Stem Substem>  (5) 
nan

>  <First Approval>  (5) 
nan

>  <ATC Codes>  (5) 
nan

>  <Level 4 ATC Codes>  (5) 
nan

>  <Level 3 ATC Codes>  (5) 
nan

>  <Level 2 ATC Codes>  (5) 
nan

>  <Level 1 ATC Codes>  (5) 
nan

>  <Indication Class>  (5) 
nan

>  <Patent>  (5) 
nan

>  <Drug Type>  (5) 
1:Synthetic Small Molecule

>  <Passes Rule of Five>  (5) 
True

>  <First In Class>  (5) 
False

>  <Chirality>  (5) 
Achiral Molecule

>  <Prodrug>  (5) 
False

>  <Oral>  (5) 
False

>  <Parenteral>  (5) 
False

>  <Topical>  (5) 
False

>  <Black Box>  (5) 
False

>  <Availability Type>  (5) 
Unknown

>  <Withdrawn Year>  (5) 
nan

>  <Withdrawn Reason>  (5) 
nan

>  <Withdrawn Country>  (5) 
nan

>  <Withdrawn Class>  (5) 
nan

>  <SMILES>  (5) 
CN(CCC=C1c2ccccc2CCc2ccccc21)C(=O)CCCN

>  <InChi Key>  (5) 
DOIAVGICIXNFIH-UHFFFAOYSA-N

$$$$
CHEMBL118865
     RDKit          2D

 28 31  0  0  0  0  0  0  0  0999 V2000
    3.2521    5.8051    0.0000 C   0  0  0  0  0  0  0  0  0  0  0  0
    1.7849    5.4933    0.0000 N   0  0  0  0  0  0  0  0  0  0  0  0
    0.7812    6.6080    0.0000 C   0  0  0  0  0  0  0  0  0  0  0  0
   -0.6860    6.2961    0.0000 O   0  0  0  0  0  0  0  0  0  0  0  0
    1.2447    8.0346    0.0000 C   0  0  0  0  0  0  0  0  0  0  0  0
    0.2410    9.1493    0.0000 C   0  0  0  0  0  0  0  0  0  0  0  0
    0.7045   10.5759    0.0000 C   0  0  0  0  0  0  0  0  0  0  0  0
   -0.2992   11.6906    0.0000 C   0  0  0  0  0  0  0  0  0  0  0  0
   -1.7664   11.3787    0.0000 C   0  0  0  0  0  0  0  0  0  0  0  0
   -2.7701   12.4935    0.0000 Cl  0  0  0  0  0  0  0  0  0  0  0  0
   -2.2299    9.9521    0.0000 C   0  0  0  0  0  0  0  0  0  0  0  0
   -3.6971    9.6403    0.0000 Cl  0  0  0  0  0  0  0  0  0  0  0  0
   -1.2262    8.8374    0.0000 C   0  0  0  0  0  0  0  0  0  0  0  0
    1.3213    4.0667    0.0000 C   0  0  0  0  0  0  0  0  0  0  0  0
   -0.1459    3.7548    0.0000 C   0  0  0  0  0  0  0  0  0  0  0  0
   -0.6094    2.3282    0.0000 C   0  0  0  0  0  0  0  0  0  0  0  0
    0.3943    1.2135    0.0000 C   0  0  0  0  0  0  0  0  0  0  0  0
    1.2760    0.0000    0.0000 C   0  0  0  0  0  0  0  0  0  0  0  0
    0.3943   -1.2135    0.0000 C   0  0  0  0  0  0  0  0  0  0  0  0
   -1.0323   -0.7500    0.0000 C   0  0  0  0  0  0  0  0  0  0  0  0
   -1.0323    0.7500    0.0000 O   0  0  0  0  0  0  0  0  0  0  0  0
    1.8615    1.5254    0.0000 C   0  0  0  0  0  0  0  0  0  0  0  0
    2.3250    2.9520    0.0000 C   0  0  0  0  0  0  0  0  0  0  0  0
    3.7923    3.2638    0.0000 N   0  0  0  0  0  0  0  0  0  0  0  0
    4.4024    4.6342    0.0000 C   0  0  0  0  0  0  0  0  0  0  0  0
    5.8942    4.4774    0.0000 C   0  0  0  0  0  0  0  0  0  0  0  0
    6.2060    3.0101    0.0000 C   0  0  0  0  0  0  0  0  0  0  0  0
    4.9070    2.2601    0.0000 C   0  0  0  0  0  0  0  0  0  0  0  0
  1  2  1  0
  2  3  1  0
  3  4  2  0
  3  5  1  0
  5  6  1  0
  6  7  2  0
  7  8  1  0
  8  9  2  0
  9 10  1  0
  9 11  1  0
 11 12  1  0
 11 13  2  0
  2 14  1  0
 14 15  1  0
 15 16  1  0
 16 17  1  0
 17 18  1  0
 18 19  1  0
 19 20  1  0
 20 21  1  0
 17 22  1  0
 22 23  1  0
 23 24  1  0
 24 25  1  0
 25 26  1  0
 26 27  1  0
 27 28  1  0
 13  6  1  0
 23 14  1  0
 28 24  1  0
 21 17  1  0
M  END
>  <Synonyms>  (6) 
SPIRADOLINE

>  <Research Codes>  (6) 
nan

>  <Phase>  (6) 
1

>  <Applicants>  (6) 
nan

>  <USAN Stem>  (6) 
'-adol-'

>  <USAN Year>  (6) 
1989.0

>  <USAN Stem Definition>  (6) 
analgesics (mixed opiate receptor agonists/antagonists)

>  <USAN Stem Substem>  (6) 
'-adol-(-adol-)'

>  <First Approval>  (6) 
nan

>  <ATC Codes>  (6) 
nan

>  <Level 4 ATC Codes>  (6) 
nan

>  <Level 3 ATC Codes>  (6) 
nan

>  <Level 2 ATC Codes>  (6) 
nan

>  <Level 1 ATC Codes>  (6) 
nan

>  <Indication Class>  (6) 
Analgesic

>  <Patent>  (6) 
nan

>  <Drug Type>  (6) 
1:Synthetic Small Molecule

>  <Passes Rule of Five>  (6) 
True

>  <First In Class>  (6) 
False

>  <Chirality>  (6) 
Racemic Mixture

>  <Prodrug>  (6) 
False

>  <Oral>  (6) 
False

>  <Parenteral>  (6) 
False

>  <Topical>  (6) 
False

>  <Black Box>  (6) 
False

>  <Availability Type>  (6) 
Unknown

>  <Withdrawn Year>  (6) 
nan

>  <Withdrawn Reason>  (6) 
nan

>  <Withdrawn Country>  (6) 
nan

>  <Withdrawn Class>  (6) 
nan

>  <SMILES>  (6) 
CN(C(=O)Cc1ccc(Cl)c(Cl)c1)C1CCC2(CCCO2)CC1N1CCCC1

>  <InChi Key>  (6) 
NYKCGQQJNVPOLU-UHFFFAOYSA-N

$$$$
CHEMBL359227
     RDKit          2D

 42 48  0  0  0  0  0  0  0  0999 V2000
   -1.5307    3.4867    0.0000 C   0  0  0  0  0  0  0  0  0  0  0  0
   -2.3004    2.1992    0.0000 C   0  0  0  0  0  0  0  0  0  0  0  0
   -1.1284   -0.7399    0.0000 N   0  0  0  0  0  0  0  0  0  0  0  0
   -1.0514   -0.8786    0.0000 C   0  0  0  0  0  0  0  0  0  0  0  0
    0.7500   -1.2990    0.0000 C   0  0  0  0  0  0  0  0  0  0  0  0
    1.5000   -2.5981    0.0000 C   0  0  0  0  0  0  0  0  0  0  0  0
    3.0000   -2.5981    0.0000 O   0  0  0  0  0  0  0  0  0  0  0  0
    3.7500   -3.8971    0.0000 C   0  0  0  0  0  0  0  0  0  0  0  0
    3.0000   -5.1962    0.0000 O   0  0  0  0  0  0  0  0  0  0  0  0
    5.2500   -3.8971    0.0000 C   0  0  0  0  0  0  0  0  0  0  0  0
    6.0000   -5.1962    0.0000 C   0  0  0  0  0  0  0  0  0  0  0  0
    7.5000   -5.1962    0.0000 C   0  0  0  0  0  0  0  0  0  0  0  0
    8.2500   -3.8971    0.0000 C   0  0  0  0  0  0  0  0  0  0  0  0
    7.5000   -2.5981    0.0000 C   0  0  0  0  0  0  0  0  0  0  0  0
    6.0000   -2.5981    0.0000 C   0  0  0  0  0  0  0  0  0  0  0  0
    5.2500   -1.2990    0.0000 N   0  0  0  0  0  0  0  0  0  0  0  0
    1.5000    0.0000    0.0000 C   0  0  0  0  0  0  0  0  0  0  0  0
    0.7500    1.2990    0.0000 C   0  0  0  0  0  0  0  0  0  0  0  0
   -0.7500    1.2990    0.0000 C   0  0  0  0  0  0  0  0  0  0  0  0
   -1.5000    2.5981    0.0000 O   0  0  0  0  0  0  0  0  0  0  0  0
   -0.7500    3.8971    0.0000 C   0  0  0  0  0  0  0  0  0  0  0  0
   -1.5000    0.0000    0.0000 C   0  0  0  0  0  0  0  0  0  0  0  0
   -2.6147    1.0037    0.0000 C   0  0  0  0  0  0  0  0  0  0  0  0
   -2.6147    2.5037    0.0000 C   0  0  0  0  0  0  0  0  0  0  0  0
   -4.0413    2.9672    0.0000 C   0  0  0  0  0  0  0  0  0  0  0  0
   -5.4684    1.4195    0.0000 C   0  0  0  0  0  0  0  0  0  0  0  0
   -6.7035    2.2708    0.0000 O   0  0  0  0  0  0  0  0  0  0  0  0
   -8.0582    1.6269    0.0000 C   0  0  0  0  0  0  0  0  0  0  0  0
   -5.5882   -0.0757    0.0000 C   0  0  0  0  0  0  0  0  0  0  0  0
   -4.3532   -0.9271    0.0000 C   0  0  0  0  0  0  0  0  0  0  0  0
   -5.7798   -1.3906    0.0000 O   0  0  0  0  0  0  0  0  0  0  0  0
   -4.0413    0.5402    0.0000 C   0  0  0  0  0  0  0  0  0  0  0  0
   -4.9230    1.7537    0.0000 C   0  0  0  0  0  0  0  0  0  0  0  0
   -6.4230    1.7537    0.0000 O   0  0  0  0  0  0  0  0  0  0  0  0
   -7.1730    3.0527    0.0000 C   0  0  0  0  0  0  0  0  0  0  0  0
   -3.1240   -1.8037    0.0000 C   0  0  0  0  0  0  0  0  0  0  0  0
   -4.4231   -2.5537    0.0000 O   0  0  0  0  0  0  0  0  0  0  0  0
   -2.9672   -0.3119    0.0000 C   0  0  0  0  0  0  0  0  0  0  0  0
   -1.7537   -2.4138    0.0000 C   0  0  0  0  0  0  0  0  0  0  0  0
   -1.4418   -3.8810    0.0000 O   0  0  0  0  0  0  0  0  0  0  0  0
   -2.5565   -4.8847    0.0000 C   0  0  0  0  0  0  0  0  0  0  0  0
   -0.7500   -1.2990    0.0000 C   0  0  0  0  0  0  0  0  0  0  0  0
  1  2  1  0
  2  3  1  0
  3  4  1  0
  4  5  1  0
  5  6  1  1
  6  7  1  0
  7  8  1  0
  8  9  2  0
  8 10  1  0
 10 11  2  0
 11 12  1  0
 12 13  2  0
 13 14  1  0
 14 15  2  0
 15 16  1  0
  5 17  1  0
 17 18  1  0
 18 19  1  0
 19 20  1  1
 20 21  1  0
 19 22  1  0
 22 23  1  6
 23 24  1  0
 25 24  1  1
 25 26  1  0
 26 27  1  6
 27 28  1  0
 26 29  1  0
 29 30  1  0
 30 31  1  6
 30 32  1  0
 32 33  1  0
 33 34  1  1
 34 35  1  0
 30 36  1  0
 36 37  1  6
 36 38  1  0
 36 39  1  0
 39 40  1  6
 40 41  1  0
 39 42  1  0
 38  3  1  0
 42  5  1  0
 15 10  1  0
 38 22  1  0
 42 22  1  0
 32 23  1  0
 33 25  1  0
M  END
>  <Synonyms>  (7) 
INULINE

>  <Research Codes>  (7) 
nan

>  <Phase>  (7) 
1

>  <Applicants>  (7) 
nan

>  <USAN Stem>  (7) 
nan

>  <USAN Year>  (7) 
nan

>  <USAN Stem Definition>  (7) 
nan

>  <USAN Stem Substem>  (7) 
nan

>  <First Approval>  (7) 
nan

>  <ATC Codes>  (7) 
nan

>  <Level 4 ATC Codes>  (7) 
nan

>  <Level 3 ATC Codes>  (7) 
nan

>  <Level 2 ATC Codes>  (7) 
nan

>  <Level 1 ATC Codes>  (7) 
nan

>  <Indication Class>  (7) 
nan

>  <Patent>  (7) 
nan

>  <Drug Type>  (7) 
7:Natural Product-derived

>  <Passes Rule of Five>  (7) 
False

>  <First In Class>  (7) 
False

>  <Chirality>  (7) 
Unknown

>  <Prodrug>  (7) 
False

>  <Oral>  (7) 
False

>  <Parenteral>  (7) 
False

>  <Topical>  (7) 
False

>  <Black Box>  (7) 
False

>  <Availability Type>  (7) 
Unknown

>  <Withdrawn Year>  (7) 
nan

>  <Withdrawn Reason>  (7) 
nan

>  <Withdrawn Country>  (7) 
nan

>  <Withdrawn Class>  (7) 
nan

>  <SMILES>  (7) 
CCN1C[C@]2(COC(=O)c3ccccc3N)CC[C@H](OC)[C@]34C5C[C@@H]6[C@@H](OC)C[C@@](O)(C5[C@H]6OC)[C@@](O)(C13)[C@@H](OC)C24

>  <InChi Key>  (7) 
NNDHDYDFEDRMGH-ZPGZUGTNSA-N

$$$$
CHEMBL1186581
     RDKit          2D

 28 32  0  0  0  0  0  0  0  0999 V2000
    4.3395   10.2631    0.0000 C   0  0  0  0  0  0  0  0  0  0  0  0
    3.3358    9.1484    0.0000 C   0  0  0  0  0  0  0  0  0  0  0  0
    3.7993    7.7218    0.0000 C   0  0  0  0  0  0  0  0  0  0  0  0
    2.7957    6.6071    0.0000 C   0  0  0  0  0  0  0  0  0  0  0  0
    1.3284    6.9189    0.0000 C   0  0  0  0  0  0  0  0  0  0  0  0
    0.3247    5.8042    0.0000 C   0  0  0  0  0  0  0  0  0  0  0  0
    0.6366    4.3370    0.0000 C   0  0  0  0  0  0  0  0  0  0  0  0
   -0.6624    3.5870    0.0000 C   0  0  0  0  0  0  0  0  0  0  0  0
   -0.8192    2.0952    0.0000 C   0  0  0  0  0  0  0  0  0  0  0  0
    0.3943    1.2135    0.0000 C   0  0  0  0  0  0  0  0  0  0  0  0
    1.2760    0.0000    0.0000 C   0  0  0  0  0  0  0  0  0  0  0  0
    0.3943   -1.2135    0.0000 C   0  0  0  0  0  0  0  0  0  0  0  0
   -1.0323   -0.7500    0.0000 C   0  0  0  0  0  0  0  0  0  0  0  0
   -2.3463   -0.0067    0.0000 C   0  0  0  0  0  0  0  0  0  0  0  0
   -2.1895    1.4851    0.0000 C   0  0  0  0  0  0  0  0  0  0  0  0
   -3.4031    2.3668    0.0000 C   0  0  0  0  0  0  0  0  0  0  0  0
   -3.2463    3.8586    0.0000 C   0  0  0  0  0  0  0  0  0  0  0  0
   -4.4598    4.7402    0.0000 C   0  0  0  0  0  0  0  0  0  0  0  0
   -5.8301    4.1301    0.0000 C   0  0  0  0  0  0  0  0  0  0  0  0
   -7.0436    5.0118    0.0000 Cl  0  0  0  0  0  0  0  0  0  0  0  0
   -5.9869    2.6383    0.0000 C   0  0  0  0  0  0  0  0  0  0  0  0
   -4.7734    1.7567    0.0000 C   0  0  0  0  0  0  0  0  0  0  0  0
   -1.0323    0.7500    0.0000 N   0  0  0  0  0  0  0  0  0  0  0  0
   -1.5447    1.3607    0.0000 C   0  0  0  0  0  0  0  0  0  0  0  0
   -1.7772    4.5907    0.0000 O   0  0  0  0  0  0  0  0  0  0  0  0
   -1.1670    5.9610    0.0000 N   0  0  0  0  0  0  0  0  0  0  0  0
    0.8649    8.3455    0.0000 C   0  0  0  0  0  0  0  0  0  0  0  0
    1.8686    9.4602    0.0000 C   0  0  0  0  0  0  0  0  0  0  0  0
  1  2  1  0
  2  3  2  0
  3  4  1  0
  4  5  2  0
  5  6  1  0
  6  7  1  0
  7  8  2  0
  9  8  1  6
  9 10  1  0
 10 11  1  0
 11 12  1  0
 12 13  1  0
 13 14  1  0
 14 15  1  0
 15 16  1  6
 16 17  2  0
 17 18  1  0
 18 19  2  0
 19 20  1  0
 19 21  1  0
 21 22  2  0
 13 23  1  0
 23 24  1  0
  8 25  1  0
 25 26  1  0
  5 27  1  0
 27 28  2  0
 28  2  1  0
 26  6  2  0
 15  9  1  0
 22 16  1  0
 23 10  1  0
M  END
>  <Synonyms>  (8) 
RTI 336|RTI 4229-336|RTI-336

>  <Research Codes>  (8) 
RTI 336|RTI 4229-336

>  <Phase>  (8) 
1

>  <Applicants>  (8) 
nan

>  <USAN Stem>  (8) 
nan

>  <USAN Year>  (8) 
nan

>  <USAN Stem Definition>  (8) 
nan

>  <USAN Stem Substem>  (8) 
nan

>  <First Approval>  (8) 
nan

>  <ATC Codes>  (8) 
nan

>  <Level 4 ATC Codes>  (8) 
nan

>  <Level 3 ATC Codes>  (8) 
nan

>  <Level 2 ATC Codes>  (8) 
nan

>  <Level 1 ATC Codes>  (8) 
nan

>  <Indication Class>  (8) 
nan

>  <Patent>  (8) 
nan

>  <Drug Type>  (8) 
1:Synthetic Small Molecule

>  <Passes Rule of Five>  (8) 
False

>  <First In Class>  (8) 
False

>  <Chirality>  (8) 
Single Stereoisomer

>  <Prodrug>  (8) 
False

>  <Oral>  (8) 
False

>  <Parenteral>  (8) 
False

>  <Topical>  (8) 
False

>  <Black Box>  (8) 
False

>  <Availability Type>  (8) 
Unknown

>  <Withdrawn Year>  (8) 
nan

>  <Withdrawn Reason>  (8) 
nan

>  <Withdrawn Country>  (8) 
nan

>  <Withdrawn Class>  (8) 
nan

>  <SMILES>  (8) 
Cc1ccc(-c2cc([C@@H]3C4CCC(C[C@@H]3c3ccc(Cl)cc3)N4C)on2)cc1

>  <InChi Key>  (8) 
AUXUFNHAVGIVDC-DXTSEPBQSA-N

$$$$
CHEMBL422872
     RDKit          2D

 33 36  0  0  0  0  0  0  0  0999 V2000
   -6.0000  -15.5885    0.0000 O   0  0  0  0  0  0  0  0  0  0  0  0
   -5.2500  -14.2894    0.0000 C   0  0  0  0  0  0  0  0  0  0  0  0
   -3.7500  -14.2894    0.0000 O   0  0  0  0  0  0  0  0  0  0  0  0
   -6.0000  -12.9904    0.0000 C   0  0  0  0  0  0  0  0  0  0  0  0
   -5.2500  -11.6913    0.0000 S   0  0  0  0  0  0  0  0  0  0  0  0
   -6.0000  -10.3923    0.0000 C   0  0  0  0  0  0  0  0  0  0  0  0
   -7.5000  -10.3923    0.0000 C   0  0  0  0  0  0  0  0  0  0  0  0
   -8.2500  -11.6913    0.0000 C   0  0  0  0  0  0  0  0  0  0  0  0
   -9.7500  -11.6913    0.0000 C   0  0  0  0  0  0  0  0  0  0  0  0
  -10.5000  -12.9904    0.0000 C   0  0  0  0  0  0  0  0  0  0  0  0
  -12.0000  -12.9904    0.0000 C   0  0  0  0  0  0  0  0  0  0  0  0
  -12.7500  -14.2894    0.0000 C   0  0  0  0  0  0  0  0  0  0  0  0
  -12.0000  -15.5885    0.0000 C   0  0  0  0  0  0  0  0  0  0  0  0
  -10.5000  -15.5885    0.0000 C   0  0  0  0  0  0  0  0  0  0  0  0
   -9.7500  -14.2894    0.0000 C   0  0  0  0  0  0  0  0  0  0  0  0
   -5.2500   -9.0933    0.0000 C   0  0  0  0  0  0  0  0  0  0  0  0
   -3.7500   -9.0933    0.0000 C   0  0  0  0  0  0  0  0  0  0  0  0
   -3.0000   -7.7942    0.0000 C   0  0  0  0  0  0  0  0  0  0  0  0
   -3.7500   -6.4952    0.0000 C   0  0  0  0  0  0  0  0  0  0  0  0
   -3.0000   -5.1962    0.0000 O   0  0  0  0  0  0  0  0  0  0  0  0
   -1.5000   -5.1962    0.0000 C   0  0  0  0  0  0  0  0  0  0  0  0
   -0.7500   -3.8971    0.0000 C   0  0  0  0  0  0  0  0  0  0  0  0
    0.7500   -3.8971    0.0000 C   0  0  0  0  0  0  0  0  0  0  0  0
    1.5000   -2.5981    0.0000 C   0  0  0  0  0  0  0  0  0  0  0  0
    0.7500   -1.2990    0.0000 C   0  0  0  0  0  0  0  0  0  0  0  0
    1.5000    0.0000    0.0000 C   0  0  0  0  0  0  0  0  0  0  0  0
    0.7500    1.2990    0.0000 C   0  0  0  0  0  0  0  0  0  0  0  0
   -0.7500    1.2990    0.0000 C   0  0  0  0  0  0  0  0  0  0  0  0
   -1.5000    0.0000    0.0000 C   0  0  0  0  0  0  0  0  0  0  0  0
   -0.7500   -1.2990    0.0000 C   0  0  0  0  0  0  0  0  0  0  0  0
   -1.5000   -2.5981    0.0000 N   0  0  0  0  0  0  0  0  0  0  0  0
   -5.2500   -6.4952    0.0000 C   0  0  0  0  0  0  0  0  0  0  0  0
   -6.0000   -7.7942    0.0000 C   0  0  0  0  0  0  0  0  0  0  0  0
  1  2  2  0
  2  3  1  0
  2  4  1  0
  4  5  1  0
  5  6  1  0
  6  7  1  0
  7  8  1  0
  8  9  1  0
  9 10  1  0
 10 11  2  0
 11 12  1  0
 12 13  2  0
 13 14  1  0
 14 15  2  0
  6 16  1  0
 16 17  2  0
 17 18  1  0
 18 19  2  0
 19 20  1  0
 20 21  1  0
 21 22  1  0
 22 23  2  0
 23 24  1  0
 24 25  2  0
 25 26  1  0
 26 27  2  0
 27 28  1  0
 28 29  2  0
 29 30  1  0
 30 31  2  0
 19 32  1  0
 32 33  2  0
 15 10  1  0
 33 16  1  0
 31 22  1  0
 30 25  1  0
M  END
>  <Synonyms>  (9) 
AZ-12096971|AZD-4769

>  <Research Codes>  (9) 
AZ-12096971|AZD-4769

>  <Phase>  (9) 
1

>  <Applicants>  (9) 
nan

>  <USAN Stem>  (9) 
nan

>  <USAN Year>  (9) 
nan

>  <USAN Stem Definition>  (9) 
nan

>  <USAN Stem Substem>  (9) 
nan

>  <First Approval>  (9) 
nan

>  <ATC Codes>  (9) 
nan

>  <Level 4 ATC Codes>  (9) 
nan

>  <Level 3 ATC Codes>  (9) 
nan

>  <Level 2 ATC Codes>  (9) 
nan

>  <Level 1 ATC Codes>  (9) 
nan

>  <Indication Class>  (9) 
nan

>  <Patent>  (9) 
nan

>  <Drug Type>  (9) 
1:Synthetic Small Molecule

>  <Passes Rule of Five>  (9) 
False

>  <First In Class>  (9) 
False

>  <Chirality>  (9) 
Racemic Mixture

>  <Prodrug>  (9) 
False

>  <Oral>  (9) 
False

>  <Parenteral>  (9) 
False

>  <Topical>  (9) 
False

>  <Black Box>  (9) 
False

>  <Availability Type>  (9) 
Unknown

>  <Withdrawn Year>  (9) 
nan

>  <Withdrawn Reason>  (9) 
nan

>  <Withdrawn Country>  (9) 
nan

>  <Withdrawn Class>  (9) 
nan

>  <SMILES>  (9) 
O=C(O)CSC(CCCc1ccccc1)c1ccc(OCc2ccc3ccccc3n2)cc1

>  <InChi Key>  (9) 
JOIXGLLMSDPZDN-UHFFFAOYSA-N

$$$$
CHEMBL456029
     RDKit          2D

 32 32  0  0  0  0  0  0  0  0999 V2000
   10.5000  -15.5885    0.0000 O   0  0  0  0  0  0  0  0  0  0  0  0
    9.7500  -14.2894    0.0000 C   0  0  0  0  0  0  0  0  0  0  0  0
    8.2500  -14.2894    0.0000 O   0  0  0  0  0  0  0  0  0  0  0  0
   10.5000  -12.9904    0.0000 C   0  0  0  0  0  0  0  0  0  0  0  0
    9.7500  -11.6913    0.0000 C   0  0  0  0  0  0  0  0  0  0  0  0
   10.5000  -10.3923    0.0000 C   0  0  0  0  0  0  0  0  0  0  0  0
    9.7500   -9.0933    0.0000 N   0  0  0  0  0  0  0  0  0  0  0  0
   10.5000   -7.7942    0.0000 C   0  0  0  0  0  0  0  0  0  0  0  0
   12.0000   -7.7942    0.0000 O   0  0  0  0  0  0  0  0  0  0  0  0
    9.7500   -6.4952    0.0000 N   0  0  0  0  0  0  0  0  0  0  0  0
   10.5000   -5.1962    0.0000 C   0  0  0  0  0  0  0  0  0  0  0  0
    9.7500   -3.8971    0.0000 C   0  0  0  0  0  0  0  0  0  0  0  0
    8.2500   -3.8971    0.0000 C   0  0  0  0  0  0  0  0  0  0  0  0
    7.5000   -2.5981    0.0000 C   0  0  0  0  0  0  0  0  0  0  0  0
    6.0000   -2.5981    0.0000 C   0  0  0  0  0  0  0  0  0  0  0  0
    5.2500   -1.2990    0.0000 N   0  0  0  0  0  0  0  0  0  0  0  0
    3.7500   -1.2990    0.0000 C   0  0  0  0  0  0  0  0  0  0  0  0
    3.0000   -2.5981    0.0000 O   0  0  0  0  0  0  0  0  0  0  0  0
    3.0000    0.0000    0.0000 N   0  0  0  0  0  0  0  0  0  0  0  0
    1.5000    0.0000    0.0000 C   0  0  0  0  0  0  0  0  0  0  0  0
    0.7500   -1.2990    0.0000 C   0  0  0  0  0  0  0  0  0  0  0  0
   -0.7500   -1.2990    0.0000 C   0  0  0  0  0  0  0  0  0  0  0  0
   -1.5000    0.0000    0.0000 C   0  0  0  0  0  0  0  0  0  0  0  0
   -3.0000    0.0000    0.0000 I   0  0  0  0  0  0  0  0  0  0  0  0
   -0.7500    1.2990    0.0000 C   0  0  0  0  0  0  0  0  0  0  0  0
    0.7500    1.2990    0.0000 C   0  0  0  0  0  0  0  0  0  0  0  0
   12.0000   -5.1962    0.0000 C   0  0  0  0  0  0  0  0  0  0  0  0
   12.7500   -6.4952    0.0000 O   0  0  0  0  0  0  0  0  0  0  0  0
   12.7500   -3.8971    0.0000 O   0  0  0  0  0  0  0  0  0  0  0  0
   12.0000  -10.3923    0.0000 C   0  0  0  0  0  0  0  0  0  0  0  0
   12.7500  -11.6913    0.0000 O   0  0  0  0  0  0  0  0  0  0  0  0
   12.7500   -9.0933    0.0000 O   0  0  0  0  0  0  0  0  0  0  0  0
  1  2  2  0
  2  3  1  0
  2  4  1  0
  4  5  1  0
  5  6  1  0
  6  7  1  0
  7  8  1  0
  8  9  2  0
  8 10  1  0
 10 11  1  0
 11 12  1  0
 12 13  1  0
 13 14  1  0
 14 15  1  0
 15 16  1  0
 16 17  1  0
 17 18  2  0
 17 19  1  0
 19 20  1  0
 20 21  2  0
 21 22  1  0
 22 23  2  0
 23 24  1  0
 23 25  1  0
 25 26  2  0
 11 27  1  0
 27 28  2  0
 27 29  1  0
  6 30  1  0
 30 31  2  0
 30 32  1  0
 26 20  1  0
M  END
>  <Synonyms>  (10) 
nan

>  <Research Codes>  (10) 
nan

>  <Phase>  (10) 
1

>  <Applicants>  (10) 
nan

>  <USAN Stem>  (10) 
nan

>  <USAN Year>  (10) 
nan

>  <USAN Stem Definition>  (10) 
nan

>  <USAN Stem Substem>  (10) 
nan

>  <First Approval>  (10) 
nan

>  <ATC Codes>  (10) 
nan

>  <Level 4 ATC Codes>  (10) 
nan

>  <Level 3 ATC Codes>  (10) 
nan

>  <Level 2 ATC Codes>  (10) 
nan

>  <Level 1 ATC Codes>  (10) 
nan

>  <Indication Class>  (10) 
nan

>  <Patent>  (10) 
nan

>  <Drug Type>  (10) 
1:Synthetic Small Molecule

>  <Passes Rule of Five>  (10) 
False

>  <First In Class>  (10) 
False

>  <Chirality>  (10) 
Single Stereoisomer

>  <Prodrug>  (10) 
False

>  <Oral>  (10) 
False

>  <Parenteral>  (10) 
False

>  <Topical>  (10) 
False

>  <Black Box>  (10) 
False

>  <Availability Type>  (10) 
Unknown

>  <Withdrawn Year>  (10) 
nan

>  <Withdrawn Reason>  (10) 
nan

>  <Withdrawn Country>  (10) 
nan

>  <Withdrawn Class>  (10) 
nan

>  <SMILES>  (10) 
O=C(O)CC[C@H](NC(=O)N[C@@H](CCCCNC(=O)Nc1ccc(I)cc1)C(=O)O)C(=O)O

>  <InChi Key>  (10) 
LFEGKCKGGNXWDV-UHFFFAOYSA-N

$$$$
CHEMBL402001
     RDKit          2D

 16 16  0  0  0  0  0  0  0  0999 V2000
    5.2500   -2.7990    0.0000 O   0  0  0  0  0  0  0  0  0  0  0  0
    5.2500   -1.2990    0.0000 P   0  0  0  0  0  7  0  0  0  0  0  0
    5.2500    0.2010    0.0000 O   0  0  0  0  0  0  0  0  0  0  0  0
    6.7500   -1.2990    0.0000 O   0  0  0  0  0  0  0  0  0  0  0  0
    3.7500   -1.2990    0.0000 O   0  0  0  0  0  0  0  0  0  0  0  0
    3.0000    0.0000    0.0000 C   0  0  0  0  0  0  0  0  0  0  0  0
    1.5000    0.0000    0.0000 C   0  0  0  0  0  0  0  0  0  0  0  0
    0.7500   -1.2990    0.0000 O   0  0  0  0  0  0  0  0  0  0  0  0
   -0.7500   -1.2990    0.0000 C   0  0  0  0  0  0  0  0  0  0  0  0
   -1.5000   -2.5981    0.0000 O   0  0  0  0  0  0  0  0  0  0  0  0
   -1.5000    0.0000    0.0000 C   0  0  0  0  0  0  0  0  0  0  0  0
   -3.0000    0.0000    0.0000 O   0  0  0  0  0  0  0  0  0  0  0  0
   -0.7500    1.2990    0.0000 C   0  0  0  0  0  0  0  0  0  0  0  0
   -1.5000    2.5981    0.0000 O   0  0  0  0  0  0  0  0  0  0  0  0
    0.7500    1.2990    0.0000 C   0  0  0  0  0  0  0  0  0  0  0  0
    1.5000    2.5981    0.0000 O   0  0  0  0  0  0  0  0  0  0  0  0
  1  2  2  0
  2  3  2  0
  2  4  1  0
  2  5  1  0
  5  6  1  0
  7  6  1  1
  7  8  1  0
  8  9  1  0
  9 10  1  6
  9 11  1  0
 11 12  1  1
 11 13  1  0
 13 14  1  1
 13 15  1  0
 15 16  1  6
 15  7  1  0
M  END
>  <Synonyms>  (11) 
Mannose 6-Phosphate|Mannose-6-phosphate

>  <Research Codes>  (11) 
nan

>  <Phase>  (11) 
1

>  <Applicants>  (11) 
nan

>  <USAN Stem>  (11) 
nan

>  <USAN Year>  (11) 
nan

>  <USAN Stem Definition>  (11) 
nan

>  <USAN Stem Substem>  (11) 
nan

>  <First Approval>  (11) 
nan

>  <ATC Codes>  (11) 
nan

>  <Level 4 ATC Codes>  (11) 
nan

>  <Level 3 ATC Codes>  (11) 
nan

>  <Level 2 ATC Codes>  (11) 
nan

>  <Level 1 ATC Codes>  (11) 
nan

>  <Indication Class>  (11) 
nan

>  <Patent>  (11) 
nan

>  <Drug Type>  (11) 
7:Natural Product-derived

>  <Passes Rule of Five>  (11) 
False

>  <First In Class>  (11) 
False

>  <Chirality>  (11) 
Unknown

>  <Prodrug>  (11) 
False

>  <Oral>  (11) 
False

>  <Parenteral>  (11) 
False

>  <Topical>  (11) 
False

>  <Black Box>  (11) 
False

>  <Availability Type>  (11) 
Unknown

>  <Withdrawn Year>  (11) 
nan

>  <Withdrawn Reason>  (11) 
nan

>  <Withdrawn Country>  (11) 
nan

>  <Withdrawn Class>  (11) 
nan

>  <SMILES>  (11) 
O=P(O)(O)OC[C@H]1O[C@H](O)[C@@H](O)[C@@H](O)[C@@H]1O

>  <InChi Key>  (11) 
FILRQECQUCCKHI-PQMKYFCFSA-N

$$$$
CHEMBL1205402
     RDKit          2D

 32 33  0  0  0  0  0  0  0  0999 V2000
    3.7500   -1.2990    0.0000 C   0  0  0  0  0  0  0  0  0  0  0  0
    3.0000    0.0000    0.0000 O   0  0  0  0  0  0  0  0  0  0  0  0
    1.5000    0.0000    0.0000 C   0  0  0  0  0  0  0  0  0  0  0  0
    0.7500   -1.2990    0.0000 C   0  0  0  0  0  0  0  0  0  0  0  0
   -0.7500   -1.2990    0.0000 C   0  0  0  0  0  0  0  0  0  0  0  0
   -1.5000   -2.5981    0.0000 C   0  0  0  0  0  0  0  0  0  0  0  0
   -3.0000   -2.5981    0.0000 C   0  0  0  0  0  0  0  0  0  0  0  0
   -3.7500   -1.2990    0.0000 C   0  0  0  0  0  0  0  0  0  0  0  0
   -3.0000    0.0000    0.0000 C   0  0  0  0  0  0  0  0  0  0  0  0
   -3.7500    1.2990    0.0000 C   0  0  0  0  0  0  0  0  0  0  0  0
   -5.2500    1.2990    0.0000 C   0  0  0  0  0  0  0  0  0  0  0  0
   -6.0000    2.5981    0.0000 O   0  0  0  0  0  0  0  0  0  0  0  0
   -5.2500    3.8971    0.0000 C   0  0  0  0  0  0  0  0  0  0  0  0
   -6.0000    0.0000    0.0000 C   0  0  0  0  0  0  0  0  0  0  0  0
   -7.5000    0.0000    0.0000 O   0  0  0  0  0  0  0  0  0  0  0  0
   -8.2500   -1.2990    0.0000 P   0  0  0  0  0  7  0  0  0  0  0  0
   -9.5490   -0.5490    0.0000 O   0  0  0  0  0  0  0  0  0  0  0  0
   -6.9510   -2.0490    0.0000 O   0  0  0  0  0  0  0  0  0  0  0  0
   -9.0000   -2.5981    0.0000 O   0  0  0  0  0  0  0  0  0  0  0  0
   -5.2500   -1.2990    0.0000 C   0  0  0  0  0  0  0  0  0  0  0  0
   -6.0000   -2.5981    0.0000 O   0  0  0  0  0  0  0  0  0  0  0  0
   -5.2500   -3.8971    0.0000 P   0  0  0  0  0  7  0  0  0  0  0  0
   -6.5490   -4.6471    0.0000 O   0  0  0  0  0  0  0  0  0  0  0  0
   -3.9510   -3.1471    0.0000 O   0  0  0  0  0  0  0  0  0  0  0  0
   -4.5000   -5.1962    0.0000 O   0  0  0  0  0  0  0  0  0  0  0  0
   -1.5000    0.0000    0.0000 C   0  0  0  0  0  0  0  0  0  0  0  0
   -0.7500    1.2990    0.0000 C   0  0  0  0  0  0  0  0  0  0  0  0
   -1.5000    2.5981    0.0000 O   0  0  0  0  0  0  0  0  0  0  0  0
   -0.7500    3.8971    0.0000 C   0  0  0  0  0  0  0  0  0  0  0  0
    0.7500    1.2990    0.0000 C   0  0  0  0  0  0  0  0  0  0  0  0
    1.5000    2.5981    0.0000 O   0  0  0  0  0  0  0  0  0  0  0  0
    3.0000    2.5981    0.0000 C   0  0  0  0  0  0  0  0  0  0  0  0
  1  2  1  0
  2  3  1  0
  3  4  2  0
  4  5  1  0
  5  6  1  0
  6  7  2  0
  7  8  1  0
  8  9  2  0
  9 10  1  0
 10 11  2  0
 11 12  1  0
 12 13  1  0
 11 14  1  0
 14 15  1  0
 15 16  1  0
 16 17  2  0
 16 18  2  0
 16 19  1  0
 14 20  2  0
 20 21  1  0
 21 22  1  0
 22 23  2  0
 22 24  2  0
 22 25  1  0
  5 26  2  0
 26 27  1  0
 27 28  1  0
 28 29  1  0
 27 30  2  0
 30 31  1  0
 31 32  1  0
 30  3  1  0
 20  8  1  0
M  END
>  <Synonyms>  (12) 
COMBRETASTATIN A1 DIPHOSPHATE|OXI-4503

>  <Research Codes>  (12) 
nan

>  <Phase>  (12) 
1

>  <Applicants>  (12) 
nan

>  <USAN Stem>  (12) 
nan

>  <USAN Year>  (12) 
nan

>  <USAN Stem Definition>  (12) 
nan

>  <USAN Stem Substem>  (12) 
nan

>  <First Approval>  (12) 
nan

>  <ATC Codes>  (12) 
nan

>  <Level 4 ATC Codes>  (12) 
nan

>  <Level 3 ATC Codes>  (12) 
nan

>  <Level 2 ATC Codes>  (12) 
nan

>  <Level 1 ATC Codes>  (12) 
nan

>  <Indication Class>  (12) 
nan

>  <Patent>  (12) 
nan

>  <Drug Type>  (12) 
1:Synthetic Small Molecule

>  <Passes Rule of Five>  (12) 
True

>  <First In Class>  (12) 
False

>  <Chirality>  (12) 
Achiral Molecule

>  <Prodrug>  (12) 
False

>  <Oral>  (12) 
False

>  <Parenteral>  (12) 
False

>  <Topical>  (12) 
False

>  <Black Box>  (12) 
False

>  <Availability Type>  (12) 
Unknown

>  <Withdrawn Year>  (12) 
nan

>  <Withdrawn Reason>  (12) 
nan

>  <Withdrawn Country>  (12) 
nan

>  <Withdrawn Class>  (12) 
nan

>  <SMILES>  (12) 
COc1cc(/C=C\c2ccc(OC)c(OP(=O)(O)O)c2OP(=O)(O)O)cc(OC)c1OC

>  <InChi Key>  (12) 
PKWFVRULELBNGC-WAYWQWQTSA-N

$$$$
CHEMBL1911274
     RDKit          2D

 38 42  0  0  0  0  0  0  0  0999 V2000
    0.7500  -14.2894    0.0000 C   0  0  0  0  0  0  0  0  0  0  0  0
    1.5000  -12.9904    0.0000 C   0  0  0  0  0  0  0  0  0  0  0  0
    3.0000  -12.9904    0.0000 N   0  0  0  0  0  0  0  0  0  0  0  0
    3.7500  -14.2894    0.0000 C   0  0  0  0  0  0  0  0  0  0  0  0
    3.7500  -11.6913    0.0000 C   0  0  0  0  0  0  0  0  0  0  0  0
    5.2500  -11.6913    0.0000 O   0  0  0  0  0  0  0  0  0  0  0  0
    3.0000  -10.3923    0.0000 C   0  0  0  0  0  0  0  0  0  0  0  0
    1.5000  -10.3923    0.0000 C   0  0  0  0  0  0  0  0  0  0  0  0
    0.7500   -9.0933    0.0000 C   0  0  0  0  0  0  0  0  0  0  0  0
    1.5000   -7.7942    0.0000 C   0  0  0  0  0  0  0  0  0  0  0  0
    0.7500   -6.4952    0.0000 C   0  0  0  0  0  0  0  0  0  0  0  0
   -0.7500   -6.4952    0.0000 C   0  0  0  0  0  0  0  0  0  0  0  0
   -1.5000   -5.1962    0.0000 C   0  0  0  0  0  0  0  0  0  0  0  0
   -0.7500   -3.8971    0.0000 C   0  0  0  0  0  0  0  0  0  0  0  0
    0.7500   -3.8971    0.0000 C   0  0  0  0  0  0  0  0  0  0  0  0
    1.5000   -5.1962    0.0000 N   0  0  0  0  0  0  0  0  0  0  0  0
    1.5000   -2.5981    0.0000 O   0  0  0  0  0  0  0  0  0  0  0  0
    0.7500   -1.2990    0.0000 C   0  0  0  0  0  0  0  0  0  0  0  0
    1.5000    0.0000    0.0000 C   0  0  0  0  0  0  0  0  0  0  0  0
    0.7500    1.2990    0.0000 C   0  0  0  0  0  0  0  0  0  0  0  0
   -0.7500    1.2990    0.0000 C   0  0  0  0  0  0  0  0  0  0  0  0
   -1.5000    0.0000    0.0000 C   0  0  0  0  0  0  0  0  0  0  0  0
   -0.7500   -1.2990    0.0000 C   0  0  0  0  0  0  0  0  0  0  0  0
   -1.5000   -2.5981    0.0000 C   0  0  0  0  0  0  0  0  0  0  0  0
   -3.0000   -2.5981    0.0000 C   0  0  0  0  0  0  0  0  0  0  0  0
   -3.0000   -4.0981    0.0000 C   0  0  0  0  0  0  0  0  0  0  0  0
   -3.0000   -1.0981    0.0000 C   0  0  0  0  0  0  0  0  0  0  0  0
   -4.5000   -2.5981    0.0000 C   0  0  0  0  0  0  0  0  0  0  0  0
   -5.2500   -1.2990    0.0000 O   0  0  0  0  0  0  0  0  0  0  0  0
   -5.2500   -3.8971    0.0000 N   0  0  0  0  0  0  0  0  0  0  0  0
   -6.7500   -3.8971    0.0000 C   0  0  0  0  0  0  0  0  0  0  0  0
   -7.6317   -5.1106    0.0000 N   0  0  0  0  0  0  0  0  0  0  0  0
   -9.0583   -4.6471    0.0000 N   0  0  0  0  0  0  0  0  0  0  0  0
   -9.0583   -3.1471    0.0000 C   0  0  0  0  0  0  0  0  0  0  0  0
   -7.6317   -2.6836    0.0000 S   0  0  0  0  0  0  0  0  0  0  0  0
    3.0000   -7.7942    0.0000 C   0  0  0  0  0  0  0  0  0  0  0  0
    3.7500   -9.0933    0.0000 C   0  0  0  0  0  0  0  0  0  0  0  0
    5.2500   -9.0933    0.0000 F   0  0  0  0  0  0  0  0  0  0  0  0
  1  2  1  0
  2  3  1  0
  3  4  1  0
  3  5  1  0
  5  6  2  0
  5  7  1  0
  7  8  2  0
  8  9  1  0
  9 10  2  0
 10 11  1  0
 11 12  2  0
 12 13  1  0
 13 14  2  0
 14 15  1  0
 15 16  2  0
 15 17  1  0
 17 18  1  0
 18 19  2  0
 19 20  1  0
 20 21  2  0
 21 22  1  0
 22 23  2  0
 23 24  1  0
 24 25  1  6
 25 26  1  0
 25 27  1  0
 25 28  1  0
 28 29  2  0
 28 30  1  0
 30 31  2  3
 31 32  1  0
 32 33  1  0
 33 34  2  0
 34 35  1  0
 10 36  1  0
 36 37  2  0
 37 38  1  0
 37  7  1  0
 16 11  1  0
 23 18  1  0
 35 31  1  0
 24 14  1  0
M  END
>  <Synonyms>  (13) 
BMS-791826

>  <Research Codes>  (13) 
BMS-791826

>  <Phase>  (13) 
1

>  <Applicants>  (13) 
nan

>  <USAN Stem>  (13) 
nan

>  <USAN Year>  (13) 
nan

>  <USAN Stem Definition>  (13) 
nan

>  <USAN Stem Substem>  (13) 
nan

>  <First Approval>  (13) 
nan

>  <ATC Codes>  (13) 
nan

>  <Level 4 ATC Codes>  (13) 
nan

>  <Level 3 ATC Codes>  (13) 
nan

>  <Level 2 ATC Codes>  (13) 
nan

>  <Level 1 ATC Codes>  (13) 
nan

>  <Indication Class>  (13) 
nan

>  <Patent>  (13) 
nan

>  <Drug Type>  (13) 
1:Synthetic Small Molecule

>  <Passes Rule of Five>  (13) 
False

>  <First In Class>  (13) 
False

>  <Chirality>  (13) 
Single Stereoisomer

>  <Prodrug>  (13) 
False

>  <Oral>  (13) 
False

>  <Parenteral>  (13) 
False

>  <Topical>  (13) 
False

>  <Black Box>  (13) 
False

>  <Availability Type>  (13) 
Unknown

>  <Withdrawn Year>  (13) 
nan

>  <Withdrawn Reason>  (13) 
nan

>  <Withdrawn Country>  (13) 
nan

>  <Withdrawn Class>  (13) 
nan

>  <SMILES>  (13) 
CCN(C)C(=O)c1ccc(-c2ccc3c(n2)Oc2ccccc2[C@H]3C(C)(C)C(=O)Nc2nncs2)cc1F

>  <InChi Key>  (13) 
DZBKAUMYTFPJIS-HSZRJFAPSA-N

$$$$
CHEMBL2024212
     RDKit          2D

 36 39  0  0  0  0  0  0  0  0999 V2000
   -5.0078   -5.8597    0.0000 C   0  0  0  0  0  0  0  0  0  0  0  0
   -3.6375   -5.2496    0.0000 O   0  0  0  0  0  0  0  0  0  0  0  0
   -2.4240   -6.1312    0.0000 C   0  0  0  0  0  0  0  0  0  0  0  0
   -1.0537   -5.5211    0.0000 C   0  0  0  0  0  0  0  0  0  0  0  0
    0.2454   -6.2711    0.0000 C   0  0  0  0  0  0  0  0  0  0  0  0
    1.3601   -5.2674    0.0000 C   0  0  0  0  0  0  0  0  0  0  0  0
    2.6591   -4.5174    0.0000 C   0  0  0  0  0  0  0  0  0  0  0  0
    3.9582   -5.2674    0.0000 N   0  0  0  0  0  0  0  0  0  0  0  0
    5.3285   -4.6573    0.0000 C   0  0  0  0  0  0  0  0  0  0  0  0
    6.3322   -5.7720    0.0000 C   0  0  0  0  0  0  0  0  0  0  0  0
    5.5822   -7.0711    0.0000 C   0  0  0  0  0  0  0  0  0  0  0  0
    4.1150   -6.7592    0.0000 N   0  0  0  0  0  0  0  0  0  0  0  0
    2.2418   -6.4810    0.0000 C   0  0  0  0  0  0  0  0  0  0  0  0
    1.6317   -7.8513    0.0000 O   0  0  0  0  0  0  0  0  0  0  0  0
    3.1189   -6.6043    0.0000 O   0  0  0  0  0  0  0  0  0  0  0  0
    0.7500   -3.8971    0.0000 N   0  0  0  0  0  0  0  0  0  0  0  0
    1.5000   -2.5981    0.0000 C   0  0  0  0  0  0  0  0  0  0  0  0
    3.0000   -2.5981    0.0000 O   0  0  0  0  0  0  0  0  0  0  0  0
    0.7500   -1.2990    0.0000 C   0  0  0  0  0  0  0  0  0  0  0  0
    1.5000    0.0000    0.0000 C   0  0  0  0  0  0  0  0  0  0  0  0
    0.7500    1.2990    0.0000 C   0  0  0  0  0  0  0  0  0  0  0  0
   -0.7500    1.2990    0.0000 C   0  0  0  0  0  0  0  0  0  0  0  0
   -1.5000    2.5981    0.0000 C   0  0  0  0  0  0  0  0  0  0  0  0
   -0.2010    3.3481    0.0000 C   0  0  0  0  0  0  0  0  0  0  0  0
   -2.7990    1.8481    0.0000 C   0  0  0  0  0  0  0  0  0  0  0  0
   -2.2500    3.8971    0.0000 C   0  0  0  0  0  0  0  0  0  0  0  0
   -1.5000    0.0000    0.0000 C   0  0  0  0  0  0  0  0  0  0  0  0
   -3.0000    0.0000    0.0000 O   0  0  0  0  0  0  0  0  0  0  0  0
   -3.9378   -0.9711    0.0000 C   0  0  0  0  0  0  0  0  0  0  0  0
   -0.7500   -1.2990    0.0000 C   0  0  0  0  0  0  0  0  0  0  0  0
   -0.7418   -4.0539    0.0000 C   0  0  0  0  0  0  0  0  0  0  0  0
   -1.7455   -2.9392    0.0000 C   0  0  0  0  0  0  0  0  0  0  0  0
   -3.2373   -3.0960    0.0000 N   0  0  0  0  0  0  0  0  0  0  0  0
   -3.8474   -1.7257    0.0000 C   0  0  0  0  0  0  0  0  0  0  0  0
   -2.7326   -0.7220    0.0000 C   0  0  0  0  0  0  0  0  0  0  0  0
   -1.4336   -1.4720    0.0000 S   0  0  0  0  0  0  0  0  0  0  0  0
  1  2  1  0
  2  3  1  0
  4  3  1  6
  4  5  1  0
  5  6  1  0
  6  7  1  1
  7  8  1  0
  8  9  1  0
  9 10  2  0
 10 11  1  0
 11 12  2  0
  6 13  1  0
 13 14  2  0
 13 15  1  0
  6 16  1  0
 16 17  1  0
 17 18  2  0
 17 19  1  0
 19 20  2  0
 20 21  1  0
 21 22  2  0
 22 23  1  0
 23 24  1  0
 23 25  1  0
 23 26  1  0
 22 27  1  0
 27 28  1  0
 28 29  1  0
 27 30  2  0
 16 31  1  0
 31 32  1  0
 32 33  2  0
 33 34  1  0
 34 35  2  0
 35 36  1  0
 31  4  1  0
 36 32  1  0
 12  8  1  0
 30 19  1  0
M  END
>  <Synonyms>  (14) 
GSK-625433

>  <Research Codes>  (14) 
GSK625433

>  <Phase>  (14) 
1

>  <Applicants>  (14) 
nan

>  <USAN Stem>  (14) 
nan

>  <USAN Year>  (14) 
nan

>  <USAN Stem Definition>  (14) 
nan

>  <USAN Stem Substem>  (14) 
nan

>  <First Approval>  (14) 
nan

>  <ATC Codes>  (14) 
nan

>  <Level 4 ATC Codes>  (14) 
nan

>  <Level 3 ATC Codes>  (14) 
nan

>  <Level 2 ATC Codes>  (14) 
nan

>  <Level 1 ATC Codes>  (14) 
nan

>  <Indication Class>  (14) 
nan

>  <Patent>  (14) 
nan

>  <Drug Type>  (14) 
1:Synthetic Small Molecule

>  <Passes Rule of Five>  (14) 
False

>  <First In Class>  (14) 
False

>  <Chirality>  (14) 
Racemic Mixture

>  <Prodrug>  (14) 
False

>  <Oral>  (14) 
False

>  <Parenteral>  (14) 
False

>  <Topical>  (14) 
False

>  <Black Box>  (14) 
False

>  <Availability Type>  (14) 
Unknown

>  <Withdrawn Year>  (14) 
nan

>  <Withdrawn Reason>  (14) 
nan

>  <Withdrawn Country>  (14) 
nan

>  <Withdrawn Class>  (14) 
nan

>  <SMILES>  (14) 
COC[C@H]1C[C@@](Cn2cccn2)(C(=O)O)N(C(=O)c2ccc(C(C)(C)C)c(OC)c2)[C@H]1c1nccs1

>  <InChi Key>  (14) 
HLQXYDHLDZTWDW-QYXRORFCSA-N

$$$$
CHEMBL325424
     RDKit          2D

 32 35  0  0  0  0  0  0  0  0999 V2000
    5.2500   -3.8971    0.0000 C   0  0  0  0  0  0  0  0  0  0  0  0
    3.7500   -3.8971    0.0000 C   0  0  0  0  0  0  0  0  0  0  0  0
    3.0000   -5.1962    0.0000 C   0  0  0  0  0  0  0  0  0  0  0  0
    1.5000   -5.1962    0.0000 C   0  0  0  0  0  0  0  0  0  0  0  0
    0.7500   -3.8971    0.0000 C   0  0  0  0  0  0  0  0  0  0  0  0
    1.5000   -2.5981    0.0000 C   0  0  0  0  0  0  0  0  0  0  0  0
    0.7500   -1.2990    0.0000 C   0  0  0  0  0  0  0  0  0  0  0  0
    1.5000    0.0000    0.0000 C   0  0  0  0  0  0  0  0  0  0  0  0
    0.7500    1.2990    0.0000 C   0  0  0  0  0  0  0  0  0  0  0  0
   -0.7500    1.2990    0.0000 C   0  0  0  0  0  0  0  0  0  0  0  0
   -1.5000    0.0000    0.0000 C   0  0  0  0  0  0  0  0  0  0  0  0
   -0.7500   -1.2990    0.0000 C   0  0  0  0  0  0  0  0  0  0  0  0
   -2.9672    0.3119    0.0000 C   0  0  0  0  0  0  0  0  0  0  0  0
   -4.0819   -0.6918    0.0000 C   0  0  0  0  0  0  0  0  0  0  0  0
   -3.7701   -2.1590    0.0000 O   0  0  0  0  0  0  0  0  0  0  0  0
   -5.5085   -0.2283    0.0000 C   0  0  0  0  0  0  0  0  0  0  0  0
   -6.6232   -1.2320    0.0000 O   0  0  0  0  0  0  0  0  0  0  0  0
   -5.8204    1.2389    0.0000 O   0  0  0  0  0  0  0  0  0  0  0  0
   -3.1240    1.8037    0.0000 C   0  0  0  0  0  0  0  0  0  0  0  0
   -1.7537    2.4138    0.0000 N   0  0  0  0  0  0  0  0  0  0  0  0
   -1.4418    3.8810    0.0000 C   0  0  0  0  0  0  0  0  0  0  0  0
   -2.5565    4.8847    0.0000 C   0  0  0  0  0  0  0  0  0  0  0  0
   -2.2447    6.3519    0.0000 C   0  0  0  0  0  0  0  0  0  0  0  0
   -3.3594    7.3556    0.0000 C   0  0  0  0  0  0  0  0  0  0  0  0
   -4.7860    6.8921    0.0000 C   0  0  0  0  0  0  0  0  0  0  0  0
   -5.9007    7.8958    0.0000 C   0  0  0  0  0  0  0  0  0  0  0  0
   -4.8970    9.0105    0.0000 C   0  0  0  0  0  0  0  0  0  0  0  0
   -6.9044    6.7810    0.0000 C   0  0  0  0  0  0  0  0  0  0  0  0
   -7.0154    8.8995    0.0000 C   0  0  0  0  0  0  0  0  0  0  0  0
   -5.0978    5.4248    0.0000 C   0  0  0  0  0  0  0  0  0  0  0  0
   -3.9831    4.4211    0.0000 C   0  0  0  0  0  0  0  0  0  0  0  0
    3.0000   -2.5981    0.0000 C   0  0  0  0  0  0  0  0  0  0  0  0
  1  2  1  0
  2  3  2  0
  3  4  1  0
  4  5  2  0
  5  6  1  0
  6  7  1  0
  7  8  2  0
  8  9  1  0
  9 10  2  0
 10 11  1  0
 11 12  2  0
 11 13  1  0
 13 14  1  0
 14 15  2  0
 14 16  1  0
 16 17  2  0
 16 18  1  0
 13 19  2  0
 19 20  1  0
 20 21  1  0
 21 22  1  0
 22 23  2  0
 23 24  1  0
 24 25  2  0
 25 26  1  0
 26 27  1  0
 26 28  1  0
 26 29  1  0
 25 30  1  0
 30 31  2  0
  6 32  2  0
 32  2  1  0
 12  7  1  0
 31 22  1  0
 20 10  1  0
M  END
>  <Synonyms>  (15) 
ALEPLASININ|PAZ-417

>  <Research Codes>  (15) 
PAZ-417

>  <Phase>  (15) 
1

>  <Applicants>  (15) 
nan

>  <USAN Stem>  (15) 
'-plasinin'

>  <USAN Year>  (15) 
2008.0

>  <USAN Stem Definition>  (15) 
inhibitors of plasminogen activator inhibitors - type 1

>  <USAN Stem Substem>  (15) 
'-plasinin(-plasinin)'

>  <First Approval>  (15) 
nan

>  <ATC Codes>  (15) 
nan

>  <Level 4 ATC Codes>  (15) 
nan

>  <Level 3 ATC Codes>  (15) 
nan

>  <Level 2 ATC Codes>  (15) 
nan

>  <Level 1 ATC Codes>  (15) 
nan

>  <Indication Class>  (15) 
nan

>  <Patent>  (15) 
nan

>  <Drug Type>  (15) 
1:Synthetic Small Molecule

>  <Passes Rule of Five>  (15) 
False

>  <First In Class>  (15) 
False

>  <Chirality>  (15) 
Achiral Molecule

>  <Prodrug>  (15) 
False

>  <Oral>  (15) 
False

>  <Parenteral>  (15) 
False

>  <Topical>  (15) 
False

>  <Black Box>  (15) 
False

>  <Availability Type>  (15) 
Unknown

>  <Withdrawn Year>  (15) 
nan

>  <Withdrawn Reason>  (15) 
nan

>  <Withdrawn Country>  (15) 
nan

>  <Withdrawn Class>  (15) 
nan

>  <SMILES>  (15) 
Cc1cccc(-c2ccc3c(c2)c(C(=O)C(=O)O)cn3Cc2ccc(C(C)(C)C)cc2)c1

>  <InChi Key>  (15) 
HSXLMAFNWCSZGP-UHFFFAOYSA-N

$$$$
CHEMBL3545355
     RDKit          2D

 35 39  0  0  0  0  0  0  0  0999 V2000
    3.0000  -10.3923    0.0000 C   0  0  0  0  0  0  0  0  0  0  0  0
    3.7500   -9.0933    0.0000 O   0  0  0  0  0  0  0  0  0  0  0  0
    3.0000   -7.7942    0.0000 C   0  0  0  0  0  0  0  0  0  0  0  0
    1.5000   -7.7942    0.0000 C   0  0  0  0  0  0  0  0  0  0  0  0
    0.7500   -6.4952    0.0000 C   0  0  0  0  0  0  0  0  0  0  0  0
    1.5000   -5.1962    0.0000 C   0  0  0  0  0  0  0  0  0  0  0  0
    0.7500   -3.8971    0.0000 C   0  0  0  0  0  0  0  0  0  0  0  0
    1.5000   -2.5981    0.0000 C   0  0  0  0  0  0  0  0  0  0  0  0
    3.0000   -2.5981    0.0000 C   0  0  0  0  0  0  0  0  0  0  0  0
    3.7500   -1.2990    0.0000 C   0  0  0  0  0  0  0  0  0  0  0  0
    5.2500   -1.2990    0.0000 C   0  0  0  0  0  0  0  0  0  0  0  0
    6.0000    0.0000    0.0000 C   0  0  0  0  0  0  0  0  0  0  0  0
    5.2500    1.2990    0.0000 C   0  0  0  0  0  0  0  0  0  0  0  0
    6.0000    2.5981    0.0000 O   0  0  0  0  0  0  0  0  0  0  0  0
    7.5000    2.5981    0.0000 C   0  0  0  0  0  0  0  0  0  0  0  0
    8.2500    3.8971    0.0000 C   0  0  0  0  0  0  0  0  0  0  0  0
    9.7500    3.8971    0.0000 N   0  0  0  0  0  0  0  0  0  0  0  0
   10.5000    2.5981    0.0000 C   0  0  0  0  0  0  0  0  0  0  0  0
   12.0000    2.5981    0.0000 C   0  0  0  0  0  0  0  0  0  0  0  0
   12.7500    3.8971    0.0000 C   0  0  0  0  0  0  0  0  0  0  0  0
   12.0000    5.1962    0.0000 C   0  0  0  0  0  0  0  0  0  0  0  0
   10.5000    5.1962    0.0000 C   0  0  0  0  0  0  0  0  0  0  0  0
    3.7500    1.2990    0.0000 C   0  0  0  0  0  0  0  0  0  0  0  0
    3.0000    0.0000    0.0000 C   0  0  0  0  0  0  0  0  0  0  0  0
    0.7500   -1.2990    0.0000 C   0  0  0  0  0  0  0  0  0  0  0  0
    1.5000    0.0000    0.0000 C   0  0  0  0  0  0  0  0  0  0  0  0
    0.7500    1.2990    0.0000 C   0  0  0  0  0  0  0  0  0  0  0  0
   -0.7500    1.2990    0.0000 C   0  0  0  0  0  0  0  0  0  0  0  0
   -1.5000    2.5981    0.0000 O   0  0  0  0  0  0  0  0  0  0  0  0
   -1.5000    0.0000    0.0000 C   0  0  0  0  0  0  0  0  0  0  0  0
   -0.7500   -1.2990    0.0000 C   0  0  0  0  0  0  0  0  0  0  0  0
   -1.5000   -2.5981    0.0000 O   0  0  0  0  0  0  0  0  0  0  0  0
   -0.7500   -3.8971    0.0000 C   0  0  0  0  0  0  0  0  0  0  0  0
    3.0000   -5.1962    0.0000 C   0  0  0  0  0  0  0  0  0  0  0  0
    3.7500   -6.4952    0.0000 C   0  0  0  0  0  0  0  0  0  0  0  0
  1  2  1  0
  2  3  1  0
  3  4  2  0
  4  5  1  0
  5  6  2  0
  6  7  1  0
  7  8  2  0
  8  9  1  0
  9 10  1  0
 10 11  2  0
 11 12  1  0
 12 13  2  0
 13 14  1  0
 14 15  1  0
 15 16  1  0
 16 17  1  0
 17 18  1  0
 18 19  1  0
 19 20  1  0
 20 21  1  0
 21 22  1  0
 13 23  1  0
 23 24  2  0
  8 25  1  0
 25 26  2  0
 26 27  1  0
 27 28  2  0
 28 29  1  0
 28 30  1  0
 30 31  2  0
 31 32  1  0
 32 33  1  0
  6 34  1  0
 34 35  2  0
 35  3  1  0
 33  7  1  0
 24 10  1  0
 31 25  1  0
 22 17  1  0
M  END
>  <Synonyms>  (16) 
CHF4227

>  <Research Codes>  (16) 
nan

>  <Phase>  (16) 
1

>  <Applicants>  (16) 
nan

>  <USAN Stem>  (16) 
nan

>  <USAN Year>  (16) 
nan

>  <USAN Stem Definition>  (16) 
nan

>  <USAN Stem Substem>  (16) 
nan

>  <First Approval>  (16) 
nan

>  <ATC Codes>  (16) 
nan

>  <Level 4 ATC Codes>  (16) 
nan

>  <Level 3 ATC Codes>  (16) 
nan

>  <Level 2 ATC Codes>  (16) 
nan

>  <Level 1 ATC Codes>  (16) 
nan

>  <Indication Class>  (16) 
nan

>  <Patent>  (16) 
nan

>  <Drug Type>  (16) 
1:Synthetic Small Molecule

>  <Passes Rule of Five>  (16) 
False

>  <First In Class>  (16) 
False

>  <Chirality>  (16) 
Achiral Molecule

>  <Prodrug>  (16) 
False

>  <Oral>  (16) 
False

>  <Parenteral>  (16) 
False

>  <Topical>  (16) 
False

>  <Black Box>  (16) 
False

>  <Availability Type>  (16) 
Unknown

>  <Withdrawn Year>  (16) 
nan

>  <Withdrawn Reason>  (16) 
nan

>  <Withdrawn Country>  (16) 
nan

>  <Withdrawn Class>  (16) 
nan

>  <SMILES>  (16) 
COc1ccc(C2=C(Cc3ccc(OCCN4CCCCC4)cc3)c3ccc(O)cc3OC2)cc1

>  <InChi Key>  (16) 
ZUDXUNPSRMREOJ-UHFFFAOYSA-N

$$$$
CHEMBL3545420
     RDKit          2D

 31 35  0  0  0  0  0  0  0  0999 V2000
    8.2500   -6.4952    0.0000 C   0  0  0  0  0  0  0  0  0  0  0  0
    7.5000   -5.1962    0.0000 C   0  0  0  0  0  0  0  0  0  0  0  0
    6.0000   -5.1962    0.0000 N   0  0  0  0  0  0  0  0  0  0  0  0
    5.2500   -3.8971    0.0000 C   0  0  0  0  0  0  0  0  0  0  0  0
    3.7500   -3.8971    0.0000 C   0  0  0  0  0  0  0  0  0  0  0  0
    3.0000   -5.1962    0.0000 C   0  0  0  0  0  0  0  0  0  0  0  0
    1.5000   -5.1962    0.0000 N   0  0  0  0  0  0  0  0  0  0  0  0
    0.7500   -3.8971    0.0000 C   0  0  0  0  0  0  0  0  0  0  0  0
    1.5000   -2.5981    0.0000 C   0  0  0  0  0  0  0  0  0  0  0  0
    0.7500   -1.2990    0.0000 C   0  0  0  0  0  0  0  0  0  0  0  0
    1.5000    0.0000    0.0000 C   0  0  0  0  0  0  0  0  0  0  0  0
    0.7500    1.2990    0.0000 C   0  0  0  0  0  0  0  0  0  0  0  0
   -0.7500    1.2990    0.0000 C   0  0  0  0  0  0  0  0  0  0  0  0
   -1.5000    0.0000    0.0000 C   0  0  0  0  0  0  0  0  0  0  0  0
   -0.7500   -1.2990    0.0000 C   0  0  0  0  0  0  0  0  0  0  0  0
   -2.9672    0.3119    0.0000 C   0  0  0  0  0  0  0  0  0  0  0  0
   -4.0819   -0.6918    0.0000 C   0  0  0  0  0  0  0  0  0  0  0  0
   -3.9251   -2.1836    0.0000 N   0  0  0  0  0  0  0  0  0  0  0  0
   -5.2955   -2.7937    0.0000 C   0  0  0  0  0  0  0  0  0  0  0  0
   -5.7590   -4.2203    0.0000 C   0  0  0  0  0  0  0  0  0  0  0  0
   -7.2262   -4.5322    0.0000 C   0  0  0  0  0  0  0  0  0  0  0  0
   -7.6897   -5.9588    0.0000 F   0  0  0  0  0  0  0  0  0  0  0  0
   -8.2299   -3.4175    0.0000 C   0  0  0  0  0  0  0  0  0  0  0  0
   -7.7664   -1.9909    0.0000 C   0  0  0  0  0  0  0  0  0  0  0  0
   -8.7701   -0.8761    0.0000 F   0  0  0  0  0  0  0  0  0  0  0  0
   -6.2992   -1.6790    0.0000 C   0  0  0  0  0  0  0  0  0  0  0  0
   -5.5492   -0.3800    0.0000 N   0  0  0  0  0  0  0  0  0  0  0  0
   -3.1240    1.8037    0.0000 N   0  0  0  0  0  0  0  0  0  0  0  0
   -1.7537    2.4138    0.0000 N   0  0  0  0  0  0  0  0  0  0  0  0
    3.0000   -2.5981    0.0000 C   0  0  0  0  0  0  0  0  0  0  0  0
    3.7500   -1.2990    0.0000 C   0  0  0  0  0  0  0  0  0  0  0  0
  1  2  1  0
  2  3  1  0
  3  4  1  0
  4  5  1  0
  5  6  2  0
  6  7  1  0
  7  8  2  0
  8  9  1  0
  9 10  1  0
 10 11  2  0
 11 12  1  0
 12 13  2  0
 13 14  1  0
 14 15  2  0
 14 16  1  0
 16 17  1  0
 17 18  1  0
 18 19  1  0
 19 20  2  0
 20 21  1  0
 21 22  1  0
 21 23  2  0
 23 24  1  0
 24 25  1  0
 24 26  2  0
 26 27  1  0
 16 28  2  0
 28 29  1  0
  9 30  2  0
 30 31  1  0
 30  5  1  0
 15 10  1  0
 27 17  2  0
 29 13  1  0
 26 19  1  0
M  END
>  <Synonyms>  (17) 
AG 024322|AG-024322|AG-24322

>  <Research Codes>  (17) 
AG-024322

>  <Phase>  (17) 
1

>  <Applicants>  (17) 
nan

>  <USAN Stem>  (17) 
nan

>  <USAN Year>  (17) 
nan

>  <USAN Stem Definition>  (17) 
nan

>  <USAN Stem Substem>  (17) 
nan

>  <First Approval>  (17) 
nan

>  <ATC Codes>  (17) 
nan

>  <Level 4 ATC Codes>  (17) 
nan

>  <Level 3 ATC Codes>  (17) 
nan

>  <Level 2 ATC Codes>  (17) 
nan

>  <Level 1 ATC Codes>  (17) 
nan

>  <Indication Class>  (17) 
nan

>  <Patent>  (17) 
nan

>  <Drug Type>  (17) 
1:Synthetic Small Molecule

>  <Passes Rule of Five>  (17) 
True

>  <First In Class>  (17) 
False

>  <Chirality>  (17) 
Achiral Molecule

>  <Prodrug>  (17) 
False

>  <Oral>  (17) 
False

>  <Parenteral>  (17) 
False

>  <Topical>  (17) 
False

>  <Black Box>  (17) 
False

>  <Availability Type>  (17) 
Unknown

>  <Withdrawn Year>  (17) 
nan

>  <Withdrawn Reason>  (17) 
nan

>  <Withdrawn Country>  (17) 
nan

>  <Withdrawn Class>  (17) 
nan

>  <SMILES>  (17) 
CCNCc1cncc(-c2ccc3c(c2)/C(=C2/N=c4cc(F)cc(F)c4=N2)NN3)c1C

>  <InChi Key>  (17) 
MEKASOQEXYKAKM-UHFFFAOYSA-N

$$$$
CHEMBL161381
     RDKit          2D

 16 17  0  0  0  0  0  0  0  0999 V2000
    3.0000    0.0000    0.0000 N   0  0  0  0  0  0  0  0  0  0  0  0
    1.5000    0.0000    0.0000 C   0  0  0  0  0  0  0  0  0  0  0  0
    0.7500   -1.2990    0.0000 N   0  0  0  0  0  0  0  0  0  0  0  0
   -0.7500   -1.2990    0.0000 C   0  0  0  0  0  0  0  0  0  0  0  0
   -1.5000   -2.5981    0.0000 O   0  0  0  0  0  0  0  0  0  0  0  0
   -1.5000    0.0000    0.0000 N   0  0  0  0  0  0  0  0  0  0  0  0
   -3.0000    0.0000    0.0000 C   0  0  0  0  0  0  0  0  0  0  0  0
   -3.8817   -1.2135    0.0000 C   0  0  0  0  0  0  0  0  0  0  0  0
   -5.3083   -0.7500    0.0000 S   0  0  0  0  0  0  0  0  0  0  0  0
   -5.3083    0.7500    0.0000 C   0  0  0  0  0  0  0  0  0  0  0  0
   -6.5218    1.6317    0.0000 C   0  0  0  0  0  0  0  0  0  0  0  0
   -6.3650    3.1235    0.0000 O   0  0  0  0  0  0  0  0  0  0  0  0
   -3.8817    1.2135    0.0000 O   0  0  0  0  0  0  0  0  0  0  0  0
   -0.7500    1.2990    0.0000 C   0  0  0  0  0  0  0  0  0  0  0  0
    0.7500    1.2990    0.0000 C   0  0  0  0  0  0  0  0  0  0  0  0
    1.5000    2.5981    0.0000 F   0  0  0  0  0  0  0  0  0  0  0  0
  1  2  2  0
  2  3  1  0
  3  4  1  0
  4  5  2  0
  4  6  1  0
  6  7  1  0
  7  8  1  0
  8  9  1  0
  9 10  1  0
 10 11  1  0
 11 12  1  0
 10 13  1  0
  6 14  1  0
 14 15  2  0
 15 16  1  0
 15  2  1  0
 13  7  1  0
M  END
>  <Synonyms>  (18) 
EMTRICITABINE, (+/-)-|RACIVIR

>  <Research Codes>  (18) 
nan

>  <Phase>  (18) 
1

>  <Applicants>  (18) 
nan

>  <USAN Stem>  (18) 
nan

>  <USAN Year>  (18) 
nan

>  <USAN Stem Definition>  (18) 
nan

>  <USAN Stem Substem>  (18) 
nan

>  <First Approval>  (18) 
nan

>  <ATC Codes>  (18) 
nan

>  <Level 4 ATC Codes>  (18) 
nan

>  <Level 3 ATC Codes>  (18) 
nan

>  <Level 2 ATC Codes>  (18) 
nan

>  <Level 1 ATC Codes>  (18) 
nan

>  <Indication Class>  (18) 
nan

>  <Patent>  (18) 
nan

>  <Drug Type>  (18) 
7:Natural Product-derived

>  <Passes Rule of Five>  (18) 
True

>  <First In Class>  (18) 
False

>  <Chirality>  (18) 
Unknown

>  <Prodrug>  (18) 
False

>  <Oral>  (18) 
False

>  <Parenteral>  (18) 
False

>  <Topical>  (18) 
False

>  <Black Box>  (18) 
False

>  <Availability Type>  (18) 
Unknown

>  <Withdrawn Year>  (18) 
nan

>  <Withdrawn Reason>  (18) 
nan

>  <Withdrawn Country>  (18) 
nan

>  <Withdrawn Class>  (18) 
nan

>  <SMILES>  (18) 
Nc1nc(=O)n(C2CSC(CO)O2)cc1F

>  <InChi Key>  (18) 
XQSPYNMVSIKCOC-UHFFFAOYSA-N

$$$$
CHEMBL3093499
     RDKit          2D

 99105  0  0  0  0  0  0  0  0999 V2000
    3.7500   -1.2990    0.0000 C   0  0  0  0  0  0  0  0  0  0  0  0
    5.2500   -1.2990    0.0000 O   0  0  0  0  0  0  0  0  0  0  0  0
    6.0000   -2.5981    0.0000 C   0  0  0  0  0  0  0  0  0  0  0  0
    5.2500   -3.8971    0.0000 C   0  0  0  0  0  0  0  0  0  0  0  0
    6.0000   -5.1962    0.0000 C   0  0  0  0  0  0  0  0  0  0  0  0
    7.5000   -5.1962    0.0000 C   0  0  0  0  0  0  0  0  0  0  0  0
    8.2500   -3.8971    0.0000 C   0  0  0  0  0  0  0  0  0  0  0  0
    7.5000   -2.5981    0.0000 C   0  0  0  0  0  0  0  0  0  0  0  0
    8.2500   -1.2990    0.0000 C   0  0  0  0  0  0  0  0  0  0  0  0
    7.5000   -0.0000    0.0000 O   0  0  0  0  0  0  0  0  0  0  0  0
    9.7500   -1.2990    0.0000 C   0  0  0  0  0  0  0  0  0  0  0  0
   10.5000    0.0000    0.0000 C   0  0  0  0  0  0  0  0  0  0  0  0
    9.7500    1.2990    0.0000 O   0  0  0  0  0  0  0  0  0  0  0  0
   12.0000    0.0000    0.0000 C   0  0  0  0  0  0  0  0  0  0  0  0
   12.7500   -1.2990    0.0000 C   0  0  0  0  0  0  0  0  0  0  0  0
   12.0000   -2.5981    0.0000 C   0  0  0  0  0  0  0  0  0  0  0  0
   12.7500   -3.8971    0.0000 O   0  0  0  0  0  0  0  0  0  0  0  0
   10.5000   -2.5981    0.0000 C   0  0  0  0  0  0  0  0  0  0  0  0
    9.7500   -3.8971    0.0000 C   0  0  0  0  0  0  0  0  0  0  0  0
   10.5000   -5.1962    0.0000 O   0  0  0  0  0  0  0  0  0  0  0  0
   14.2500   -1.2990    0.0000 C   0  0  0  0  0  0  0  0  0  0  0  0
   15.0000    0.0000    0.0000 C   0  0  0  0  0  0  0  0  0  0  0  0
   16.1491   -0.9642    0.0000 O   0  0  0  0  0  0  0  0  0  0  0  0
   16.1491    0.9642    0.0000 C   0  0  0  0  0  0  0  0  0  0  0  0
   15.8886    2.4414    0.0000 O   0  0  0  0  0  0  0  0  0  0  0  0
   17.5586    0.4512    0.0000 C   0  0  0  0  0  0  0  0  0  0  0  0
   18.7077    1.4153    0.0000 O   0  0  0  0  0  0  0  0  0  0  0  0
   14.2500    1.2990    0.0000 C   0  0  0  0  0  0  0  0  0  0  0  0
   12.7500    1.2990    0.0000 C   0  0  0  0  0  0  0  0  0  0  0  0
   12.0000    2.5981    0.0000 O   0  0  0  0  0  0  0  0  0  0  0  0
   12.7500    3.8971    0.0000 C   0  0  0  0  0  0  0  0  0  0  0  0
   12.0000    5.1962    0.0000 C   0  0  0  0  0  0  0  0  0  0  0  0
   12.7500    6.4952    0.0000 C   0  0  0  0  0  0  0  0  0  0  0  0
   12.0000    7.7942    0.0000 N   0  0  0  0  0  0  0  0  0  0  0  0
   10.5000    7.7942    0.0000 C   0  0  0  0  0  0  0  0  0  0  0  0
    9.7500    6.4952    0.0000 O   0  0  0  0  0  0  0  0  0  0  0  0
    9.7500    9.0933    0.0000 C   0  0  0  0  0  0  0  0  0  0  0  0
    8.2500    9.0933    0.0000 C   0  0  0  0  0  0  0  0  0  0  0  0
    7.5000   10.3923    0.0000 C   0  0  0  0  0  0  0  0  0  0  0  0
    6.0000   10.3923    0.0000 C   0  0  0  0  0  0  0  0  0  0  0  0
    8.2500   11.6913    0.0000 C   0  0  0  0  0  0  0  0  0  0  0  0
   10.5000   10.3923    0.0000 N   0  0  0  0  0  0  0  0  0  0  0  0
   12.0000   10.3923    0.0000 C   0  0  0  0  0  0  0  0  0  0  0  0
   12.7500    9.0933    0.0000 O   0  0  0  0  0  0  0  0  0  0  0  0
   12.7500   11.6913    0.0000 C   0  0  0  0  0  0  0  0  0  0  0  0
   14.2500   11.6913    0.0000 C   0  0  0  0  0  0  0  0  0  0  0  0
   15.0000   12.9904    0.0000 O   0  0  0  0  0  0  0  0  0  0  0  0
   12.0000   12.9904    0.0000 N   0  0  0  0  0  0  0  0  0  0  0  0
   12.7500   14.2894    0.0000 C   0  0  0  0  0  0  0  0  0  0  0  0
   14.2500   14.2894    0.0000 O   0  0  0  0  0  0  0  0  0  0  0  0
   12.0000   15.5885    0.0000 C   0  0  0  0  0  0  0  0  0  0  0  0
   12.7500   16.8875    0.0000 C   0  0  0  0  0  0  0  0  0  0  0  0
   12.0000   18.1865    0.0000 C   0  0  0  0  0  0  0  0  0  0  0  0
   12.7500   19.4856    0.0000 C   0  0  0  0  0  0  0  0  0  0  0  0
   12.0000   20.7846    0.0000 N   0  0  0  0  0  0  0  0  0  0  0  0
   14.2500   19.4856    0.0000 O   0  0  0  0  0  0  0  0  0  0  0  0
   10.5000   15.5885    0.0000 N   0  0  0  0  0  0  0  0  0  0  0  0
    9.7500   16.8875    0.0000 C   0  0  0  0  0  0  0  0  0  0  0  0
   10.5000   18.1865    0.0000 O   0  0  0  0  0  0  0  0  0  0  0  0
    8.2500   16.8875    0.0000 C   0  0  0  0  0  0  0  0  0  0  0  0
    7.5000   15.5885    0.0000 N   0  0  0  0  0  0  0  0  0  0  0  0
    6.0000   15.5885    0.0000 C   0  0  0  0  0  0  0  0  0  0  0  0
    5.2500   16.8875    0.0000 O   0  0  0  0  0  0  0  0  0  0  0  0
    5.2500   14.2894    0.0000 C   0  0  0  0  0  0  0  0  0  0  0  0
    6.0000   12.9904    0.0000 C   0  0  0  0  0  0  0  0  0  0  0  0
    5.2500   11.6913    0.0000 O   0  0  0  0  0  0  0  0  0  0  0  0
    3.7500   14.2894    0.0000 N   0  0  0  0  0  0  0  0  0  0  0  0
    3.0000   15.5885    0.0000 C   0  0  0  0  0  0  0  0  0  0  0  0
    3.7500   16.8875    0.0000 O   0  0  0  0  0  0  0  0  0  0  0  0
    1.5000   15.5885    0.0000 C   0  0  0  0  0  0  0  0  0  0  0  0
    0.7500   16.8875    0.0000 C   0  0  0  0  0  0  0  0  0  0  0  0
    0.7500   14.2894    0.0000 N   0  0  0  0  0  0  0  0  0  0  0  0
   -0.7500   14.2894    0.0000 C   0  0  0  0  0  0  0  0  0  0  0  0
   -1.5000   15.5885    0.0000 O   0  0  0  0  0  0  0  0  0  0  0  0
   -1.5000   12.9904    0.0000 C   0  0  0  0  0  0  0  0  0  0  0  0
   -2.9918   12.8336    0.0000 C   0  0  0  0  0  0  0  0  0  0  0  0
   -3.3037   11.3664    0.0000 C   0  0  0  0  0  0  0  0  0  0  0  0
   -4.6740   10.7563    0.0000 O   0  0  0  0  0  0  0  0  0  0  0  0
   -2.0046   10.6164    0.0000 C   0  0  0  0  0  0  0  0  0  0  0  0
   -0.8899   11.6201    0.0000 N   0  0  0  0  0  0  0  0  0  0  0  0
    0.5773   11.3082    0.0000 C   0  0  0  0  0  0  0  0  0  0  0  0
    1.5810   12.4229    0.0000 O   0  0  0  0  0  0  0  0  0  0  0  0
    1.0409    9.8816    0.0000 C   0  0  0  0  0  0  0  0  0  0  0  0
    2.5081    9.5697    0.0000 C   0  0  0  0  0  0  0  0  0  0  0  0
    2.9716    8.1432    0.0000 C   0  0  0  0  0  0  0  0  0  0  0  0
    4.4388    7.8313    0.0000 C   0  0  0  0  0  0  0  0  0  0  0  0
    5.4425    8.9460    0.0000 O   0  0  0  0  0  0  0  0  0  0  0  0
    4.9023    6.4047    0.0000 O   0  0  0  0  0  0  0  0  0  0  0  0
    7.5000   18.1865    0.0000 C   0  0  0  0  0  0  0  0  0  0  0  0
    8.2500   19.4856    0.0000 C   0  0  0  0  0  0  0  0  0  0  0  0
    7.5000   20.7846    0.0000 C   0  0  0  0  0  0  0  0  0  0  0  0
    6.0000   20.7846    0.0000 C   0  0  0  0  0  0  0  0  0  0  0  0
    5.2500   19.4856    0.0000 C   0  0  0  0  0  0  0  0  0  0  0  0
    6.0000   18.1865    0.0000 C   0  0  0  0  0  0  0  0  0  0  0  0
   14.2500    6.4952    0.0000 C   0  0  0  0  0  0  0  0  0  0  0  0
   15.0000    7.7942    0.0000 O   0  0  0  0  0  0  0  0  0  0  0  0
   15.0000    5.1962    0.0000 C   0  0  0  0  0  0  0  0  0  0  0  0
   16.5000    5.1962    0.0000 C   0  0  0  0  0  0  0  0  0  0  0  0
   14.2500    3.8971    0.0000 O   0  0  0  0  0  0  0  0  0  0  0  0
  1  2  1  0
  2  3  1  0
  3  4  2  0
  4  5  1  0
  5  6  2  0
  6  7  1  0
  7  8  2  0
  8  9  1  0
  9 10  1  0
  9 11  2  0
 11 12  1  0
 12 13  1  0
 12 14  2  0
 14 15  1  0
 15 16  2  0
 16 17  1  0
 16 18  1  0
 18 19  2  0
 19 20  1  0
 15 21  1  0
 21 22  1  0
 22 23  1  1
 22 24  1  0
 24 25  2  0
 24 26  1  0
 26 27  1  0
 22 28  1  0
 28 29  2  0
 29 30  1  0
 31 30  1  1
 31 32  1  0
 32 33  1  0
 33 34  1  6
 34 35  1  0
 35 36  2  0
 35 37  1  0
 37 38  1  6
 38 39  1  0
 39 40  1  0
 39 41  1  0
 37 42  1  0
 42 43  1  0
 43 44  2  0
 43 45  1  0
 45 46  1  1
 46 47  1  0
 45 48  1  0
 48 49  1  0
 49 50  2  0
 49 51  1  0
 51 52  1  1
 52 53  1  0
 53 54  1  0
 54 55  1  0
 54 56  2  0
 51 57  1  0
 57 58  1  0
 58 59  2  0
 58 60  1  0
 60 61  1  1
 61 62  1  0
 62 63  2  0
 62 64  1  0
 64 65  1  6
 65 66  1  0
 64 67  1  0
 67 68  1  0
 68 69  2  0
 68 70  1  0
 70 71  1  1
 70 72  1  0
 72 73  1  0
 73 74  2  0
 75 73  1  1
 75 76  1  0
 76 77  1  0
 77 78  1  6
 77 79  1  0
 79 80  1  0
 80 81  1  0
 81 82  2  0
 81 83  1  0
 83 84  1  0
 84 85  1  0
 85 86  1  0
 86 87  2  0
 86 88  1  0
 60 89  1  0
 89 90  1  0
 90 91  1  0
 91 92  1  0
 92 93  1  0
 93 94  1  0
 33 95  1  0
 95 96  1  6
 95 97  1  0
 97 98  1  6
 97 99  1  0
  8  3  1  0
 18 11  1  0
 99 31  1  0
 19  7  1  0
 80 75  1  0
 94 89  1  0
 29 14  1  0
M  END
>  <Synonyms>  (19) 
L-377202|L-377202-000H

>  <Research Codes>  (19) 
L-377202|L-377202-000H

>  <Phase>  (19) 
1

>  <Applicants>  (19) 
nan

>  <USAN Stem>  (19) 
nan

>  <USAN Year>  (19) 
nan

>  <USAN Stem Definition>  (19) 
nan

>  <USAN Stem Substem>  (19) 
nan

>  <First Approval>  (19) 
nan

>  <ATC Codes>  (19) 
nan

>  <Level 4 ATC Codes>  (19) 
nan

>  <Level 3 ATC Codes>  (19) 
nan

>  <Level 2 ATC Codes>  (19) 
nan

>  <Level 1 ATC Codes>  (19) 
nan

>  <Indication Class>  (19) 
nan

>  <Patent>  (19) 
nan

>  <Drug Type>  (19) 
7:Natural Product-derived

>  <Passes Rule of Five>  (19) 
False

>  <First In Class>  (19) 
False

>  <Chirality>  (19) 
Single Stereoisomer

>  <Prodrug>  (19) 
False

>  <Oral>  (19) 
False

>  <Parenteral>  (19) 
False

>  <Topical>  (19) 
False

>  <Black Box>  (19) 
False

>  <Availability Type>  (19) 
Unknown

>  <Withdrawn Year>  (19) 
nan

>  <Withdrawn Reason>  (19) 
nan

>  <Withdrawn Country>  (19) 
nan

>  <Withdrawn Class>  (19) 
nan

>  <SMILES>  (19) 
COc1cccc2c1C(=O)c1c(O)c3c(c(O)c1C2=O)C[C@@](O)(C(=O)CO)C[C@@H]3O[C@H]1C[C@H](NC(=O)[C@H](CC(C)C)NC(=O)[C@H](CO)NC(=O)[C@H](CCC(N)=O)NC(=O)[C@@H](NC(=O)[C@H](CO)NC(=O)[C@H](C)NC(=O)[C@@H]2C[C@@H](O)CN2C(=O)CCCC(=O)O)C2CCCCC2)[C@H](O)[C@H](C)O1

>  <InChi Key>  (19) 
SZOUBHJSXPNPLT-QUNNYNEFSA-N

$$$$
CHEMBL2104404
     RDKit          2D

 80 84  0  0  0  0  0  0  0  0999 V2000
    9.4960    1.2990    0.0000 C   0  0  0  0  0  0  0  0  0  0  0  0
    7.9960    1.2990    0.0000 C   0  0  0  0  0  0  0  0  0  0  0  0
    7.2460    2.5981    0.0000 C   0  0  0  0  0  0  0  0  0  0  0  0
    7.2460    0.0000    0.0000 C   0  0  0  0  0  0  0  0  0  0  0  0
    5.7460    0.0000    0.0000 C   0  0  0  0  0  0  0  0  0  0  0  0
    5.5502   -1.4872    0.0000 C   0  0  0  0  0  0  0  0  0  0  0  0
    6.9991   -1.8754    0.0000 O   0  0  0  0  0  0  0  0  0  0  0  0
    4.9762   -2.8730    0.0000 O   0  0  0  0  0  0  0  0  0  0  0  0
    4.0630   -4.0630    0.0000 C   0  0  0  0  0  0  0  0  0  0  0  0
    5.1237   -5.1237    0.0000 C   0  0  0  0  0  0  0  0  0  0  0  0
    6.5726   -4.7354    0.0000 C   0  0  0  0  0  0  0  0  0  0  0  0
    6.9608   -3.2866    0.0000 C   0  0  0  0  0  0  0  0  0  0  0  0
    8.4097   -2.8983    0.0000 C   0  0  0  0  0  0  0  0  0  0  0  0
    9.4703   -3.9590    0.0000 C   0  0  0  0  0  0  0  0  0  0  0  0
   10.9192   -3.5708    0.0000 N   0  0  0  0  0  0  0  0  0  0  0  0
   11.3075   -2.1219    0.0000 C   0  0  0  0  0  0  0  0  0  0  0  0
   12.7563   -1.7336    0.0000 C   0  0  0  0  0  0  0  0  0  0  0  0
   13.8170   -2.7943    0.0000 O   0  0  0  0  0  0  0  0  0  0  0  0
   13.4288   -4.2432    0.0000 C   0  0  0  0  0  0  0  0  0  0  0  0
   11.9799   -4.6314    0.0000 C   0  0  0  0  0  0  0  0  0  0  0  0
    9.0821   -5.4079    0.0000 C   0  0  0  0  0  0  0  0  0  0  0  0
    7.6332   -5.7961    0.0000 C   0  0  0  0  0  0  0  0  0  0  0  0
    2.8730   -4.9762    0.0000 C   0  0  0  0  0  0  0  0  0  0  0  0
    3.6230   -6.2752    0.0000 O   0  0  0  0  0  0  0  0  0  0  0  0
    1.4872   -5.5502    0.0000 N   0  0  0  0  0  0  0  0  0  0  0  0
    1.8754   -6.9991    0.0000 C   0  0  0  0  0  0  0  0  0  0  0  0
   -0.0000   -5.7460    0.0000 C   0  0  0  0  0  0  0  0  0  0  0  0
   -0.0000   -7.2460    0.0000 C   0  0  0  0  0  0  0  0  0  0  0  0
    1.2990   -7.9960    0.0000 C   0  0  0  0  0  0  0  0  0  0  0  0
    1.2990   -9.4960    0.0000 C   0  0  0  0  0  0  0  0  0  0  0  0
    2.5981   -7.2460    0.0000 C   0  0  0  0  0  0  0  0  0  0  0  0
   -1.4872   -5.5502    0.0000 C   0  0  0  0  0  0  0  0  0  0  0  0
   -1.8754   -6.9991    0.0000 O   0  0  0  0  0  0  0  0  0  0  0  0
   -2.8730   -4.9762    0.0000 O   0  0  0  0  0  0  0  0  0  0  0  0
   -4.0630   -4.0630    0.0000 C   0  0  0  0  0  0  0  0  0  0  0  0
   -5.1237   -5.1237    0.0000 C   0  0  0  0  0  0  0  0  0  0  0  0
   -4.9762   -2.8730    0.0000 C   0  0  0  0  0  0  0  0  0  0  0  0
   -6.2752   -3.6230    0.0000 O   0  0  0  0  0  0  0  0  0  0  0  0
   -5.5502   -1.4872    0.0000 N   0  0  0  0  0  0  0  0  0  0  0  0
   -6.9991   -1.8754    0.0000 C   0  0  0  0  0  0  0  0  0  0  0  0
   -5.7460    0.0000    0.0000 C   0  0  0  0  0  0  0  0  0  0  0  0
   -7.2460    0.0000    0.0000 C   0  0  0  0  0  0  0  0  0  0  0  0
   -7.9960   -1.2990    0.0000 C   0  0  0  0  0  0  0  0  0  0  0  0
   -9.4960   -1.2990    0.0000 C   0  0  0  0  0  0  0  0  0  0  0  0
   -7.2460   -2.5981    0.0000 C   0  0  0  0  0  0  0  0  0  0  0  0
   -5.5502    1.4872    0.0000 C   0  0  0  0  0  0  0  0  0  0  0  0
   -6.9991    1.8754    0.0000 O   0  0  0  0  0  0  0  0  0  0  0  0
   -4.9762    2.8730    0.0000 O   0  0  0  0  0  0  0  0  0  0  0  0
   -4.0630    4.0630    0.0000 C   0  0  0  0  0  0  0  0  0  0  0  0
   -5.1237    5.1237    0.0000 C   0  0  0  0  0  0  0  0  0  0  0  0
   -6.5726    4.7354    0.0000 C   0  0  0  0  0  0  0  0  0  0  0  0
   -6.9608    3.2866    0.0000 C   0  0  0  0  0  0  0  0  0  0  0  0
   -8.4097    2.8983    0.0000 C   0  0  0  0  0  0  0  0  0  0  0  0
   -9.4703    3.9590    0.0000 C   0  0  0  0  0  0  0  0  0  0  0  0
  -10.9192    3.5708    0.0000 N   0  0  0  0  0  0  0  0  0  0  0  0
  -11.3075    2.1219    0.0000 C   0  0  0  0  0  0  0  0  0  0  0  0
  -12.7563    1.7336    0.0000 C   0  0  0  0  0  0  0  0  0  0  0  0
  -13.8170    2.7943    0.0000 O   0  0  0  0  0  0  0  0  0  0  0  0
  -13.4288    4.2432    0.0000 C   0  0  0  0  0  0  0  0  0  0  0  0
  -11.9799    4.6314    0.0000 C   0  0  0  0  0  0  0  0  0  0  0  0
   -9.0821    5.4079    0.0000 C   0  0  0  0  0  0  0  0  0  0  0  0
   -7.6332    5.7961    0.0000 C   0  0  0  0  0  0  0  0  0  0  0  0
   -2.8730    4.9762    0.0000 C   0  0  0  0  0  0  0  0  0  0  0  0
   -3.6230    6.2752    0.0000 O   0  0  0  0  0  0  0  0  0  0  0  0
   -1.4872    5.5502    0.0000 N   0  0  0  0  0  0  0  0  0  0  0  0
   -1.8754    6.9991    0.0000 C   0  0  0  0  0  0  0  0  0  0  0  0
    0.0000    5.7460    0.0000 C   0  0  0  0  0  0  0  0  0  0  0  0
   -0.0000    7.2460    0.0000 C   0  0  0  0  0  0  0  0  0  0  0  0
   -1.2990    7.9960    0.0000 C   0  0  0  0  0  0  0  0  0  0  0  0
   -1.2990    9.4960    0.0000 C   0  0  0  0  0  0  0  0  0  0  0  0
   -2.5981    7.2460    0.0000 C   0  0  0  0  0  0  0  0  0  0  0  0
    1.4872    5.5502    0.0000 C   0  0  0  0  0  0  0  0  0  0  0  0
    1.8754    6.9991    0.0000 O   0  0  0  0  0  0  0  0  0  0  0  0
    2.8730    4.9762    0.0000 O   0  0  0  0  0  0  0  0  0  0  0  0
    4.0630    4.0630    0.0000 C   0  0  0  0  0  0  0  0  0  0  0  0
    5.1237    5.1237    0.0000 C   0  0  0  0  0  0  0  0  0  0  0  0
    4.9762    2.8730    0.0000 C   0  0  0  0  0  0  0  0  0  0  0  0
    6.2752    3.6230    0.0000 O   0  0  0  0  0  0  0  0  0  0  0  0
    5.5502    1.4872    0.0000 N   0  0  0  0  0  0  0  0  0  0  0  0
    6.9991    1.8754    0.0000 C   0  0  0  0  0  0  0  0  0  0  0  0
  1  2  1  0
  2  3  1  0
  2  4  1  0
  5  4  1  1
  5  6  1  0
  6  7  2  0
  6  8  1  0
  8  9  1  0
  9 10  1  6
 10 11  1  0
 11 12  2  0
 12 13  1  0
 13 14  2  0
 14 15  1  0
 15 16  1  0
 16 17  1  0
 17 18  1  0
 18 19  1  0
 19 20  1  0
 14 21  1  0
 21 22  2  0
  9 23  1  0
 23 24  2  0
 23 25  1  0
 25 26  1  0
 25 27  1  0
 27 28  1  0
 28 29  1  0
 29 30  1  0
 29 31  1  0
 27 32  1  0
 32 33  2  0
 32 34  1  0
 34 35  1  0
 35 36  1  0
 35 37  1  0
 37 38  2  0
 37 39  1  0
 39 40  1  0
 39 41  1  0
 41 42  1  1
 42 43  1  0
 43 44  1  0
 43 45  1  0
 41 46  1  0
 46 47  2  0
 46 48  1  0
 48 49  1  0
 49 50  1  0
 50 51  1  0
 51 52  2  0
 52 53  1  0
 53 54  2  0
 54 55  1  0
 55 56  1  0
 56 57  1  0
 57 58  1  0
 58 59  1  0
 59 60  1  0
 54 61  1  0
 61 62  2  0
 49 63  1  0
 63 64  2  0
 63 65  1  0
 65 66  1  0
 65 67  1  0
 67 68  1  1
 68 69  1  0
 69 70  1  0
 69 71  1  0
 67 72  1  0
 72 73  2  0
 72 74  1  0
 74 75  1  0
 75 76  1  6
 75 77  1  0
 77 78  2  0
 77 79  1  0
 79 80  1  0
 79  5  1  0
 22 11  1  0
 62 51  1  0
 20 15  1  0
 60 55  1  0
M  END
>  <Synonyms>  (20) 
BAY 44-4400|BAY-44-4400|EMODEPSIDE|PF 1022-221|PF-1022-221

>  <Research Codes>  (20) 
BAY 44-4400|BAY-44-4400|PF 1022-221|PF-1022-221

>  <Phase>  (20) 
1

>  <Applicants>  (20) 
nan

>  <USAN Stem>  (20) 
nan

>  <USAN Year>  (20) 
nan

>  <USAN Stem Definition>  (20) 
nan

>  <USAN Stem Substem>  (20) 
nan

>  <First Approval>  (20) 
nan

>  <ATC Codes>  (20) 
nan

>  <Level 4 ATC Codes>  (20) 
nan

>  <Level 3 ATC Codes>  (20) 
nan

>  <Level 2 ATC Codes>  (20) 
nan

>  <Level 1 ATC Codes>  (20) 
nan

>  <Indication Class>  (20) 
nan

>  <Patent>  (20) 
nan

>  <Drug Type>  (20) 
7:Natural Product-derived

>  <Passes Rule of Five>  (20) 
False

>  <First In Class>  (20) 
False

>  <Chirality>  (20) 
Single Stereoisomer

>  <Prodrug>  (20) 
False

>  <Oral>  (20) 
False

>  <Parenteral>  (20) 
False

>  <Topical>  (20) 
False

>  <Black Box>  (20) 
False

>  <Availability Type>  (20) 
Unknown

>  <Withdrawn Year>  (20) 
nan

>  <Withdrawn Reason>  (20) 
nan

>  <Withdrawn Country>  (20) 
nan

>  <Withdrawn Class>  (20) 
nan

>  <SMILES>  (20) 
CC(C)C[C@H]1C(=O)O[C@H](Cc2ccc(N3CCOCC3)cc2)C(=O)N(C)[C@@H](CC(C)C)C(=O)O[C@H](C)C(=O)N(C)[C@@H](CC(C)C)C(=O)O[C@H](Cc2ccc(N3CCOCC3)cc2)C(=O)N(C)[C@@H](CC(C)C)C(=O)O[C@H](C)C(=O)N1C

>  <InChi Key>  (20) 
ZMQMTKVVAMWKNY-BGBYTNSASA-N

$$$$
CHEMBL1236524
     RDKit          2D

 19 21  0  0  0  0  0  0  0  0999 V2000
    3.0000    0.0000    0.0000 N   0  0  0  0  0  0  0  0  0  0  0  0
    1.5000    0.0000    0.0000 C   0  0  0  0  0  0  0  0  0  0  0  0
    0.7500   -1.2990    0.0000 N   0  0  0  0  0  0  0  0  0  0  0  0
   -0.7500   -1.2990    0.0000 C   0  0  0  0  0  0  0  0  0  0  0  0
   -1.5000    0.0000    0.0000 N   0  0  0  0  0  0  0  0  0  0  0  0
   -0.7500    1.2990    0.0000 C   0  0  0  0  0  0  0  0  0  0  0  0
   -1.2135    2.7256    0.0000 C   0  0  0  0  0  0  0  0  0  0  0  0
   -2.6401    3.1891    0.0000 C   0  0  0  0  0  0  0  0  0  0  0  0
   -3.8536    2.3075    0.0000 N   0  0  0  0  0  0  0  0  0  0  0  0
   -5.0672    3.1891    0.0000 C   0  0  0  0  0  0  0  0  0  0  0  0
   -6.4937    2.7256    0.0000 C   0  0  0  0  0  0  0  0  0  0  0  0
   -7.6085    3.7293    0.0000 O   0  0  0  0  0  0  0  0  0  0  0  0
   -4.6036    4.6157    0.0000 C   0  0  0  0  0  0  0  0  0  0  0  0
   -5.4853    5.8293    0.0000 O   0  0  0  0  0  0  0  0  0  0  0  0
   -3.1036    4.6157    0.0000 C   0  0  0  0  0  0  0  0  0  0  0  0
   -2.2220    5.8293    0.0000 O   0  0  0  0  0  0  0  0  0  0  0  0
    0.0000    3.6073    0.0000 C   0  0  0  0  0  0  0  0  0  0  0  0
    1.2135    2.7256    0.0000 N   0  0  0  0  0  0  0  0  0  0  0  0
    0.7500    1.2990    0.0000 C   0  0  0  0  0  0  0  0  0  0  0  0
  1  2  2  0
  2  3  1  0
  3  4  1  0
  4  5  2  0
  5  6  1  0
  6  7  1  0
  8  7  1  6
  8  9  1  0
  9 10  1  0
 10 11  1  6
 11 12  1  0
 10 13  1  0
 13 14  1  1
 13 15  1  0
 15 16  1  1
  7 17  2  0
 17 18  1  0
 18 19  1  0
 19  2  1  0
 19  6  2  0
 15  8  1  0
M  END
>  <Synonyms>  (21) 
BCX-4430|BCX4430|GALIDESIVIR

>  <Research Codes>  (21) 
BCX-4430|BCX4430

>  <Phase>  (21) 
1

>  <Applicants>  (21) 
nan

>  <USAN Stem>  (21) 
'-vir'

>  <USAN Year>  (21) 
nan

>  <USAN Stem Definition>  (21) 
antivirals: adenosine analogs acting as RNA polymerase inhibitors

>  <USAN Stem Substem>  (21) 
'-vir(-vir (-desivir))'

>  <First Approval>  (21) 
nan

>  <ATC Codes>  (21) 
nan

>  <Level 4 ATC Codes>  (21) 
nan

>  <Level 3 ATC Codes>  (21) 
nan

>  <Level 2 ATC Codes>  (21) 
nan

>  <Level 1 ATC Codes>  (21) 
nan

>  <Indication Class>  (21) 
nan

>  <Patent>  (21) 
nan

>  <Drug Type>  (21) 
7:Natural Product-derived

>  <Passes Rule of Five>  (21) 
False

>  <First In Class>  (21) 
False

>  <Chirality>  (21) 
Single Stereoisomer

>  <Prodrug>  (21) 
False

>  <Oral>  (21) 
False

>  <Parenteral>  (21) 
False

>  <Topical>  (21) 
False

>  <Black Box>  (21) 
False

>  <Availability Type>  (21) 
Unknown

>  <Withdrawn Year>  (21) 
nan

>  <Withdrawn Reason>  (21) 
nan

>  <Withdrawn Country>  (21) 
nan

>  <Withdrawn Class>  (21) 
nan

>  <SMILES>  (21) 
Nc1ncnc2c([C@@H]3N[C@H](CO)[C@@H](O)[C@H]3O)c[nH]c12

>  <InChi Key>  (21) 
AMFDITJFBUXZQN-KUBHLMPHSA-N

$$$$
CHEMBL3182532
     RDKit          2D

 17 17  0  0  0  0  0  0  0  0999 V2000
    9.7500   -3.8971    0.0000 C   0  0  0  0  0  0  0  0  0  0  0  0
    8.2500   -3.8971    0.0000 C   0  0  0  0  0  0  0  0  0  0  0  0
    7.5000   -2.5981    0.0000 C   0  0  0  0  0  0  0  0  0  0  0  0
    6.0000   -2.5981    0.0000 C   0  0  0  0  0  0  0  0  0  0  0  0
    5.2500   -1.2990    0.0000 C   0  0  0  0  0  0  0  0  0  0  0  0
    3.7500   -1.2990    0.0000 C   0  0  0  0  0  0  0  0  0  0  0  0
    3.0000    0.0000    0.0000 O   0  0  0  0  0  0  0  0  0  0  0  0
    1.5000    0.0000    0.0000 C   0  0  0  0  0  0  0  0  0  0  0  0
    0.7500   -1.2990    0.0000 C   0  0  0  0  0  0  0  0  0  0  0  0
   -0.7500   -1.2990    0.0000 C   0  0  0  0  0  0  0  0  0  0  0  0
   -1.5000   -2.5981    0.0000 C   0  0  0  0  0  0  0  0  0  0  0  0
   -1.5000    0.0000    0.0000 C   0  0  0  0  0  0  0  0  0  0  0  0
   -3.0000    0.0000    0.0000 O   0  0  0  0  0  0  0  0  0  0  0  0
   -0.7500    1.2990    0.0000 C   0  0  0  0  0  0  0  0  0  0  0  0
   -1.5000    2.5981    0.0000 C   0  0  0  0  0  0  0  0  0  0  0  0
    0.7500    1.2990    0.0000 C   0  0  0  0  0  0  0  0  0  0  0  0
    1.5000    2.5981    0.0000 C   0  0  0  0  0  0  0  0  0  0  0  0
  1  2  1  0
  2  3  1  0
  3  4  1  0
  4  5  1  0
  5  6  1  0
  6  7  1  0
  7  8  1  0
  8  9  2  0
  9 10  1  0
 10 11  1  0
 10 12  2  0
 12 13  1  0
 12 14  1  0
 14 15  1  0
 14 16  2  0
 16 17  1  0
 16  8  1  0
M  END
>  <Synonyms>  (22) 
HX-1171

>  <Research Codes>  (22) 
nan

>  <Phase>  (22) 
1

>  <Applicants>  (22) 
nan

>  <USAN Stem>  (22) 
nan

>  <USAN Year>  (22) 
nan

>  <USAN Stem Definition>  (22) 
nan

>  <USAN Stem Substem>  (22) 
nan

>  <First Approval>  (22) 
nan

>  <ATC Codes>  (22) 
nan

>  <Level 4 ATC Codes>  (22) 
nan

>  <Level 3 ATC Codes>  (22) 
nan

>  <Level 2 ATC Codes>  (22) 
nan

>  <Level 1 ATC Codes>  (22) 
nan

>  <Indication Class>  (22) 
nan

>  <Patent>  (22) 
nan

>  <Drug Type>  (22) 
1:Synthetic Small Molecule

>  <Passes Rule of Five>  (22) 
True

>  <First In Class>  (22) 
False

>  <Chirality>  (22) 
Achiral Molecule

>  <Prodrug>  (22) 
False

>  <Oral>  (22) 
False

>  <Parenteral>  (22) 
False

>  <Topical>  (22) 
False

>  <Black Box>  (22) 
False

>  <Availability Type>  (22) 
Unknown

>  <Withdrawn Year>  (22) 
nan

>  <Withdrawn Reason>  (22) 
nan

>  <Withdrawn Country>  (22) 
nan

>  <Withdrawn Class>  (22) 
nan

>  <SMILES>  (22) 
CCCCCCOc1cc(C)c(O)c(C)c1C

>  <InChi Key>  (22) 
ATMNQRRJNBCQJO-UHFFFAOYSA-N

$$$$
CHEMBL1183627
     RDKit          2D

 18 17  0  0  0  0  0  0  0  0999 V2000
   -1.2990    0.7500    0.0000 N   0  0  0  0  0  0  0  0  0  0  0  0
    0.0000    0.0000    0.0000 C   0  0  0  0  0  0  0  0  0  0  0  0
    1.2990    0.7500    0.0000 C   0  0  0  0  0  0  0  0  0  0  0  0
    2.5981   -0.0000    0.0000 C   0  0  0  0  0  0  0  0  0  0  0  0
    2.5981   -1.5000    0.0000 O   0  0  0  0  0  0  0  0  0  0  0  0
    3.8971    0.7500    0.0000 N   0  0  0  0  0  0  0  0  0  0  0  0
    5.1962   -0.0000    0.0000 C   0  0  0  0  0  0  0  0  0  0  0  0
    6.4952    0.7500    0.0000 C   0  0  0  0  0  0  0  0  0  0  0  0
    7.7942   -0.0000    0.0000 S   0  0  0  0  0  0  0  0  0  0  0  0
    9.0933    0.7500    0.0000 S   0  0  0  0  0  0  0  0  0  0  0  0
   10.3923   -0.0000    0.0000 C   0  0  0  0  0  0  0  0  0  0  0  0
   11.6913    0.7500    0.0000 C   0  0  0  0  0  0  0  0  0  0  0  0
   12.9904   -0.0000    0.0000 N   0  0  0  0  0  0  0  0  0  0  0  0
   14.2894    0.7500    0.0000 C   0  0  0  0  0  0  0  0  0  0  0  0
   14.2894    2.2500    0.0000 O   0  0  0  0  0  0  0  0  0  0  0  0
   15.5885   -0.0000    0.0000 C   0  0  0  0  0  0  0  0  0  0  0  0
   16.8875    0.7500    0.0000 C   0  0  0  0  0  0  0  0  0  0  0  0
   18.1865   -0.0000    0.0000 N   0  0  0  0  0  0  0  0  0  0  0  0
  1  2  1  0
  2  3  1  0
  3  4  1  0
  4  5  2  0
  4  6  1  0
  6  7  1  0
  7  8  1  0
  8  9  1  0
  9 10  1  0
 10 11  1  0
 11 12  1  0
 12 13  1  0
 13 14  1  0
 14 15  2  0
 14 16  1  0
 16 17  1  0
 17 18  1  0
M  END
>  <Synonyms>  (23) 
ALETHINE|BETA ALETHINE

>  <Research Codes>  (23) 
nan

>  <Phase>  (23) 
1

>  <Applicants>  (23) 
nan

>  <USAN Stem>  (23) 
nan

>  <USAN Year>  (23) 
nan

>  <USAN Stem Definition>  (23) 
nan

>  <USAN Stem Substem>  (23) 
nan

>  <First Approval>  (23) 
nan

>  <ATC Codes>  (23) 
nan

>  <Level 4 ATC Codes>  (23) 
nan

>  <Level 3 ATC Codes>  (23) 
nan

>  <Level 2 ATC Codes>  (23) 
nan

>  <Level 1 ATC Codes>  (23) 
nan

>  <Indication Class>  (23) 
nan

>  <Patent>  (23) 
nan

>  <Drug Type>  (23) 
1:Synthetic Small Molecule

>  <Passes Rule of Five>  (23) 
True

>  <First In Class>  (23) 
False

>  <Chirality>  (23) 
Achiral Molecule

>  <Prodrug>  (23) 
False

>  <Oral>  (23) 
False

>  <Parenteral>  (23) 
False

>  <Topical>  (23) 
False

>  <Black Box>  (23) 
False

>  <Availability Type>  (23) 
Unknown

>  <Withdrawn Year>  (23) 
nan

>  <Withdrawn Reason>  (23) 
nan

>  <Withdrawn Country>  (23) 
nan

>  <Withdrawn Class>  (23) 
nan

>  <SMILES>  (23) 
NCCC(=O)NCCSSCCNC(=O)CCN

>  <InChi Key>  (23) 
WELIVEBWRWAGOM-UHFFFAOYSA-N

$$$$
CHEMBL1852164
     RDKit          2D

 17 17  0  0  0  0  0  0  0  0999 V2000
    3.5260   -1.2990    0.0000 C   0  0  0  0  0  0  0  0  0  0  0  0
    2.7760    0.0000    0.0000 C   0  0  0  0  0  0  0  0  0  0  0  0
    3.5260    1.2990    0.0000 N   0  0  0  0  0  0  0  0  0  0  0  0
    5.0260    1.2990    0.0000 O   0  0  0  0  0  0  0  0  0  0  0  0
    1.2760    0.0000    0.0000 C   0  0  0  0  0  0  0  0  0  0  0  0
    0.3943    1.2135    0.0000 N   0  0  0  0  0  0  0  0  0  0  0  0
   -1.0323    0.7500    0.0000 C   0  0  0  0  0  0  0  0  0  0  0  0
   -2.2458    1.6317    0.0000 C   0  0  0  0  0  0  0  0  0  0  0  0
   -3.6161    1.0216    0.0000 O   0  0  0  0  0  0  0  0  0  0  0  0
   -2.0890    3.1235    0.0000 C   0  0  0  0  0  0  0  0  0  0  0  0
   -0.7187    3.7336    0.0000 O   0  0  0  0  0  0  0  0  0  0  0  0
   -3.3025    4.0051    0.0000 C   0  0  0  0  0  0  0  0  0  0  0  0
   -4.6729    3.3950    0.0000 O   0  0  0  0  0  0  0  0  0  0  0  0
   -3.1458    5.4969    0.0000 C   0  0  0  0  0  0  0  0  0  0  0  0
   -4.3593    6.3786    0.0000 O   0  0  0  0  0  0  0  0  0  0  0  0
   -1.0323   -0.7500    0.0000 C   0  0  0  0  0  0  0  0  0  0  0  0
    0.3943   -1.2135    0.0000 N   0  0  0  0  0  0  0  0  0  0  0  0
  1  2  1  0
  2  3  2  3
  3  4  1  0
  2  5  1  0
  5  6  2  0
  6  7  1  0
  7  8  1  0
  8  9  1  0
  8 10  1  0
 10 11  1  0
 10 12  1  0
 12 13  1  0
 12 14  1  0
 14 15  1  0
  7 16  2  0
 16 17  1  0
 17  5  1  0
M  END
>  <Synonyms>  (24) 
LX 2931|LX-2931|LX-3305|LX2931|LX3305

>  <Research Codes>  (24) 
LX 2931|LX-3305|LX2931|LX3305

>  <Phase>  (24) 
1

>  <Applicants>  (24) 
nan

>  <USAN Stem>  (24) 
nan

>  <USAN Year>  (24) 
nan

>  <USAN Stem Definition>  (24) 
nan

>  <USAN Stem Substem>  (24) 
nan

>  <First Approval>  (24) 
nan

>  <ATC Codes>  (24) 
nan

>  <Level 4 ATC Codes>  (24) 
nan

>  <Level 3 ATC Codes>  (24) 
nan

>  <Level 2 ATC Codes>  (24) 
nan

>  <Level 1 ATC Codes>  (24) 
nan

>  <Indication Class>  (24) 
nan

>  <Patent>  (24) 
nan

>  <Drug Type>  (24) 
1:Synthetic Small Molecule

>  <Passes Rule of Five>  (24) 
False

>  <First In Class>  (24) 
False

>  <Chirality>  (24) 
Single Stereoisomer

>  <Prodrug>  (24) 
False

>  <Oral>  (24) 
False

>  <Parenteral>  (24) 
False

>  <Topical>  (24) 
False

>  <Black Box>  (24) 
False

>  <Availability Type>  (24) 
Unknown

>  <Withdrawn Year>  (24) 
nan

>  <Withdrawn Reason>  (24) 
nan

>  <Withdrawn Country>  (24) 
nan

>  <Withdrawn Class>  (24) 
nan

>  <SMILES>  (24) 
C/C(=N\O)c1nc([C@@H](O)[C@H](O)[C@H](O)CO)c[nH]1

>  <InChi Key>  (24) 
AMXVYJYMZLDINS-UHFFFAOYSA-N

$$$$
CHEMBL1614702
     RDKit          2D

 35 38  0  0  0  0  0  0  0  0999 V2000
    3.7500   -1.2990    0.0000 C   0  0  0  0  0  0  0  0  0  0  0  0
    3.0000    0.0000    0.0000 O   0  0  0  0  0  0  0  0  0  0  0  0
    1.5000    0.0000    0.0000 C   0  0  0  0  0  0  0  0  0  0  0  0
    0.7500   -1.2990    0.0000 C   0  0  0  0  0  0  0  0  0  0  0  0
   -0.7500   -1.2990    0.0000 C   0  0  0  0  0  0  0  0  0  0  0  0
   -1.5000    0.0000    0.0000 C   0  0  0  0  0  0  0  0  0  0  0  0
   -0.7500    1.2990    0.0000 C   0  0  0  0  0  0  0  0  0  0  0  0
    0.7500    1.2990    0.0000 C   0  0  0  0  0  0  0  0  0  0  0  0
    1.5000    2.5981    0.0000 C   0  0  0  0  0  0  0  0  0  0  0  0
    3.0000    2.5981    0.0000 O   0  0  0  0  0  0  0  0  0  0  0  0
    0.7500    3.8971    0.0000 N   0  0  0  0  0  0  0  0  0  0  0  0
    1.5000    5.1962    0.0000 C   0  0  0  0  0  0  0  0  0  0  0  0
    0.7500    6.4952    0.0000 C   0  0  0  0  0  0  0  0  0  0  0  0
   -0.7500    6.4952    0.0000 C   0  0  0  0  0  0  0  0  0  0  0  0
   -1.5000    7.7942    0.0000 C   0  0  0  0  0  0  0  0  0  0  0  0
   -0.7500    9.0933    0.0000 C   0  0  0  0  0  0  0  0  0  0  0  0
    0.7500    9.0933    0.0000 C   0  0  0  0  0  0  0  0  0  0  0  0
    1.5000   10.3923    0.0000 C   0  0  0  0  0  0  0  0  0  0  0  0
    0.7500   11.6913    0.0000 C   0  0  0  0  0  0  0  0  0  0  0  0
    1.5000   12.9904    0.0000 F   0  0  0  0  0  0  0  0  0  0  0  0
   -0.7500   11.6913    0.0000 C   0  0  0  0  0  0  0  0  0  0  0  0
   -1.5000   10.3923    0.0000 C   0  0  0  0  0  0  0  0  0  0  0  0
   -1.5000    5.1962    0.0000 C   0  0  0  0  0  0  0  0  0  0  0  0
   -0.7500    3.8971    0.0000 C   0  0  0  0  0  0  0  0  0  0  0  0
   -2.9672   -0.3119    0.0000 C   0  0  0  0  0  0  0  0  0  0  0  0
   -4.0819    0.6918    0.0000 C   0  0  0  0  0  0  0  0  0  0  0  0
   -3.7701    2.1590    0.0000 O   0  0  0  0  0  0  0  0  0  0  0  0
   -5.5085    0.2283    0.0000 C   0  0  0  0  0  0  0  0  0  0  0  0
   -5.8204   -1.2389    0.0000 O   0  0  0  0  0  0  0  0  0  0  0  0
   -6.6232    1.2320    0.0000 N   0  0  0  0  0  0  0  0  0  0  0  0
   -8.0498    0.7685    0.0000 C   0  0  0  0  0  0  0  0  0  0  0  0
   -6.3114    2.6992    0.0000 C   0  0  0  0  0  0  0  0  0  0  0  0
   -3.1240   -1.8037    0.0000 C   0  0  0  0  0  0  0  0  0  0  0  0
   -1.7537   -2.4138    0.0000 N   0  0  0  0  0  0  0  0  0  0  0  0
   -1.4418   -3.8810    0.0000 C   0  0  0  0  0  0  0  0  0  0  0  0
  1  2  1  0
  2  3  1  0
  3  4  2  0
  4  5  1  0
  5  6  2  0
  6  7  1  0
  7  8  2  0
  8  9  1  0
  9 10  2  0
  9 11  1  0
 11 12  1  0
 12 13  1  0
 13 14  1  0
 14 15  1  0
 15 16  1  0
 16 17  2  0
 17 18  1  0
 18 19  2  0
 19 20  1  0
 19 21  1  0
 21 22  2  0
 14 23  1  0
 23 24  1  0
  6 25  1  0
 25 26  1  0
 26 27  2  0
 26 28  1  0
 28 29  2  0
 28 30  1  0
 30 31  1  0
 30 32  1  0
 25 33  2  0
 33 34  1  0
 34 35  1  0
  8  3  1  0
 24 11  1  0
 34  5  1  0
 22 16  1  0
M  END
>  <Synonyms>  (25) 
SCIO-323

>  <Research Codes>  (25) 
SCIO-323

>  <Phase>  (25) 
1

>  <Applicants>  (25) 
nan

>  <USAN Stem>  (25) 
nan

>  <USAN Year>  (25) 
nan

>  <USAN Stem Definition>  (25) 
nan

>  <USAN Stem Substem>  (25) 
nan

>  <First Approval>  (25) 
nan

>  <ATC Codes>  (25) 
nan

>  <Level 4 ATC Codes>  (25) 
nan

>  <Level 3 ATC Codes>  (25) 
nan

>  <Level 2 ATC Codes>  (25) 
nan

>  <Level 1 ATC Codes>  (25) 
nan

>  <Indication Class>  (25) 
nan

>  <Patent>  (25) 
nan

>  <Drug Type>  (25) 
1:Synthetic Small Molecule

>  <Passes Rule of Five>  (25) 
True

>  <First In Class>  (25) 
False

>  <Chirality>  (25) 
Achiral Molecule

>  <Prodrug>  (25) 
False

>  <Oral>  (25) 
False

>  <Parenteral>  (25) 
False

>  <Topical>  (25) 
False

>  <Black Box>  (25) 
False

>  <Availability Type>  (25) 
Unknown

>  <Withdrawn Year>  (25) 
nan

>  <Withdrawn Reason>  (25) 
nan

>  <Withdrawn Country>  (25) 
nan

>  <Withdrawn Class>  (25) 
nan

>  <SMILES>  (25) 
COc1cc2c(cc1C(=O)N1CCC(Cc3ccc(F)cc3)CC1)c(C(=O)C(=O)N(C)C)cn2C

>  <InChi Key>  (25) 
JBNWDYGOTHQHOZ-UHFFFAOYSA-N

$$$$
CHEMBL3126832
     RDKit          2D

 31 32  0  0  0  0  0  0  0  0999 V2000
   -0.9127    6.6782    0.0000 C   0  0  0  0  0  0  0  0  0  0  0  0
    0.3008    5.7965    0.0000 C   0  0  0  0  0  0  0  0  0  0  0  0
    1.6711    6.4066    0.0000 C   0  0  0  0  0  0  0  0  0  0  0  0
    0.1440    4.3048    0.0000 C   0  0  0  0  0  0  0  0  0  0  0  0
    1.5706    3.8412    0.0000 N   0  0  0  0  0  0  0  0  0  0  0  0
    2.6853    2.8375    0.0000 C   0  0  0  0  0  0  0  0  0  0  0  0
    3.8989    3.7192    0.0000 O   0  0  0  0  0  0  0  0  0  0  0  0
    3.2954    1.4672    0.0000 C   0  0  0  0  0  0  0  0  0  0  0  0
    3.6073    0.0000    0.0000 C   0  0  0  0  0  0  0  0  0  0  0  0
    3.2954   -1.4672    0.0000 S   0  0  0  0  0  0  0  0  0  0  0  0
    2.4138   -2.6807    0.0000 S   0  0  0  0  0  0  0  0  0  0  0  0
    1.1147   -3.4307    0.0000 C   0  0  0  0  0  0  0  0  0  0  0  0
   -0.3771   -3.5875    0.0000 C   0  0  0  0  0  0  0  0  0  0  0  0
   -1.8037   -3.1240    0.0000 C   0  0  0  0  0  0  0  0  0  0  0  0
   -2.9184   -2.1203    0.0000 C   0  0  0  0  0  0  0  0  0  0  0  0
   -3.5285   -0.7500    0.0000 C   0  0  0  0  0  0  0  0  0  0  0  0
   -2.8438    0.6045    0.0000 C   0  0  0  0  0  0  0  0  0  0  0  0
   -2.3521    1.7089    0.0000 C   0  0  0  0  0  0  0  0  0  0  0  0
   -4.0154    3.1433    0.0000 O   0  0  0  0  0  0  0  0  0  0  0  0
   -1.4537    2.5178    0.0000 N   0  0  0  0  0  0  0  0  0  0  0  0
   -0.3039    2.8914    0.0000 C   0  0  0  0  0  0  0  0  0  0  0  0
   -0.5339    5.0793    0.0000 C   0  0  0  0  0  0  0  0  0  0  0  0
    0.8984    2.7650    0.0000 C   0  0  0  0  0  0  0  0  0  0  0  0
    1.5782    4.8573    0.0000 O   0  0  0  0  0  0  0  0  0  0  0  0
    1.9454    2.1605    0.0000 N   0  0  0  0  0  0  0  0  0  0  0  0
   -3.8403    0.7172    0.0000 O   0  0  0  0  0  0  0  0  0  0  0  0
   -3.5285    2.1844    0.0000 C   0  0  0  0  0  0  0  0  0  0  0  0
   -4.9629    2.6230    0.0000 O   0  0  0  0  0  0  0  0  0  0  0  0
   -2.6468    3.3980    0.0000 C   0  0  0  0  0  0  0  0  0  0  0  0
   -1.3478    4.1480    0.0000 C   0  0  0  0  0  0  0  0  0  0  0  0
   -1.8113    5.5746    0.0000 O   0  0  0  0  0  0  0  0  0  0  0  0
  1  2  1  0
  2  3  1  0
  4  2  1  1
  4  5  1  0
  5  6  1  0
  6  7  2  0
  6  8  1  0
  8  9  1  0
  9 10  1  0
 10 11  1  0
 11 12  1  0
 12 13  1  0
 13 14  1  0
 14 15  2  0
 16 15  1  1
 16 17  1  0
 17 18  1  0
 18 19  2  0
 18 20  1  0
 20 21  1  0
 21 22  1  6
 21 23  1  0
 23 24  2  0
 23 25  1  0
 16 26  1  0
 26 27  1  0
 27 28  2  0
 27 29  1  0
 29 30  1  0
 30 31  1  6
 30  4  1  0
 25  8  1  0
M  END
>  <Synonyms>  (26) 
OBP-801|YM-753

>  <Research Codes>  (26) 
YM-753

>  <Phase>  (26) 
1

>  <Applicants>  (26) 
nan

>  <USAN Stem>  (26) 
nan

>  <USAN Year>  (26) 
nan

>  <USAN Stem Definition>  (26) 
nan

>  <USAN Stem Substem>  (26) 
nan

>  <First Approval>  (26) 
nan

>  <ATC Codes>  (26) 
nan

>  <Level 4 ATC Codes>  (26) 
nan

>  <Level 3 ATC Codes>  (26) 
nan

>  <Level 2 ATC Codes>  (26) 
nan

>  <Level 1 ATC Codes>  (26) 
nan

>  <Indication Class>  (26) 
nan

>  <Patent>  (26) 
nan

>  <Drug Type>  (26) 
7:Natural Product-derived

>  <Passes Rule of Five>  (26) 
True

>  <First In Class>  (26) 
False

>  <Chirality>  (26) 
Single Stereoisomer

>  <Prodrug>  (26) 
False

>  <Oral>  (26) 
False

>  <Parenteral>  (26) 
False

>  <Topical>  (26) 
False

>  <Black Box>  (26) 
False

>  <Availability Type>  (26) 
Unknown

>  <Withdrawn Year>  (26) 
nan

>  <Withdrawn Reason>  (26) 
nan

>  <Withdrawn Country>  (26) 
nan

>  <Withdrawn Class>  (26) 
nan

>  <SMILES>  (26) 
CC(C)[C@H]1NC(=O)[C@H]2CSSCC/C=C/[C@H](CC(=O)N[C@H](C)C(=O)N2)OC(=O)C[C@@H]1O

>  <InChi Key>  (26) 
XFLBOEMFLGLWFF-RAHJIHIKSA-N

$$$$
CHEMBL2107301
     RDKit          2D

 25 26  0  0  0  0  0  0  0  0999 V2000
   11.7760    5.1962    0.0000 C   0  0  0  0  0  0  0  0  0  0  0  0
   10.2760    5.1962    0.0000 C   0  0  0  0  0  0  0  0  0  0  0  0
    9.5260    6.4952    0.0000 C   0  0  0  0  0  0  0  0  0  0  0  0
    9.5260    3.8971    0.0000 C   0  0  0  0  0  0  0  0  0  0  0  0
   10.2760    2.5981    0.0000 N   0  0  0  0  0  0  0  0  0  0  0  0
    8.0260    3.8971    0.0000 C   0  0  0  0  0  0  0  0  0  0  0  0
    7.2760    5.1962    0.0000 O   0  0  0  0  0  0  0  0  0  0  0  0
    7.2760    2.5981    0.0000 O   0  0  0  0  0  0  0  0  0  0  0  0
    5.7760    2.5981    0.0000 C   0  0  0  0  0  0  0  0  0  0  0  0
    5.0260    1.2990    0.0000 C   0  0  0  0  0  0  0  0  0  0  0  0
    3.5260    1.2990    0.0000 C   0  0  0  0  0  0  0  0  0  0  0  0
    2.7760    2.5981    0.0000 C   0  0  0  0  0  0  0  0  0  0  0  0
    3.5260    3.8971    0.0000 O   0  0  0  0  0  0  0  0  0  0  0  0
    2.7760    0.0000    0.0000 C   0  0  0  0  0  0  0  0  0  0  0  0
    1.2760    0.0000    0.0000 N   0  0  0  0  0  0  0  0  0  0  0  0
    0.3943    1.2135    0.0000 C   0  0  0  0  0  0  0  0  0  0  0  0
   -1.0323    0.7500    0.0000 N   0  0  0  0  0  0  0  0  0  0  0  0
   -1.0323   -0.7500    0.0000 C   0  0  0  0  0  0  0  0  0  0  0  0
   -2.1470   -1.7537    0.0000 C   0  0  0  0  0  0  0  0  0  0  0  0
   -3.5736   -1.2902    0.0000 O   0  0  0  0  0  0  0  0  0  0  0  0
   -1.8351   -3.2209    0.0000 N   0  0  0  0  0  0  0  0  0  0  0  0
   -0.4086   -3.6844    0.0000 C   0  0  0  0  0  0  0  0  0  0  0  0
   -0.0967   -5.1517    0.0000 N   0  0  0  0  0  0  0  0  0  0  0  0
    0.7062   -2.6807    0.0000 N   0  0  0  0  0  0  0  0  0  0  0  0
    0.3943   -1.2135    0.0000 C   0  0  0  0  0  0  0  0  0  0  0  0
  1  2  1  0
  2  3  1  0
  2  4  1  0
  4  5  1  0
  4  6  1  0
  6  7  2  0
  6  8  1  0
  8  9  1  0
  9 10  1  0
 11 10  1  6
 11 12  1  0
 12 13  1  0
 11 14  1  0
 14 15  1  0
 15 16  1  0
 16 17  2  0
 17 18  1  0
 18 19  1  0
 19 20  2  0
 19 21  1  0
 21 22  1  0
 22 23  2  0
 22 24  1  0
 24 25  1  0
 25 15  1  0
 25 18  2  0
M  END
>  <Synonyms>  (27) 
EPB-348|VALOMACICLOVIR

>  <Research Codes>  (27) 
EPB-348

>  <Phase>  (27) 
1

>  <Applicants>  (27) 
nan

>  <USAN Stem>  (27) 
'-vir'

>  <USAN Year>  (27) 
nan

>  <USAN Stem Definition>  (27) 
antivirals: antivirals (acyclovir type)

>  <USAN Stem Substem>  (27) 
'-vir(-vir (-ciclovir))'

>  <First Approval>  (27) 
nan

>  <ATC Codes>  (27) 
nan

>  <Level 4 ATC Codes>  (27) 
nan

>  <Level 3 ATC Codes>  (27) 
nan

>  <Level 2 ATC Codes>  (27) 
nan

>  <Level 1 ATC Codes>  (27) 
nan

>  <Indication Class>  (27) 
nan

>  <Patent>  (27) 
nan

>  <Drug Type>  (27) 
7:Natural Product-derived

>  <Passes Rule of Five>  (27) 
True

>  <First In Class>  (27) 
False

>  <Chirality>  (27) 
Single Stereoisomer

>  <Prodrug>  (27) 
False

>  <Oral>  (27) 
False

>  <Parenteral>  (27) 
False

>  <Topical>  (27) 
False

>  <Black Box>  (27) 
False

>  <Availability Type>  (27) 
Unknown

>  <Withdrawn Year>  (27) 
nan

>  <Withdrawn Reason>  (27) 
nan

>  <Withdrawn Country>  (27) 
nan

>  <Withdrawn Class>  (27) 
nan

>  <SMILES>  (27) 
CC(C)[C@H](N)C(=O)OCC[C@@H](CO)Cn1cnc2c(=O)[nH]c(N)nc21

>  <InChi Key>  (27) 
ATSZELKUSAREPW-YHMJZVADSA-N

$$$$
CHEMBL2104954
     RDKit          2D

 40 45  0  0  0  0  0  0  0  0999 V2000
    3.7500   -1.2990    0.0000 C   0  0  0  0  0  0  0  0  0  0  0  0
    3.0000    0.0000    0.0000 O   0  0  0  0  0  0  0  0  0  0  0  0
    1.5000    0.0000    0.0000 C   0  0  0  0  0  0  0  0  0  0  0  0
    0.7500   -1.2990    0.0000 C   0  0  0  0  0  0  0  0  0  0  0  0
   -0.7500   -1.2990    0.0000 C   0  0  0  0  0  0  0  0  0  0  0  0
   -1.5000   -2.5981    0.0000 C   0  0  0  0  0  0  0  0  0  0  0  0
   -0.7500   -3.8971    0.0000 N   0  0  0  0  0  0  0  0  0  0  0  0
   -1.5000   -5.1962    0.0000 C   0  0  0  0  0  0  0  0  0  0  0  0
   -3.0000   -5.1962    0.0000 C   0  0  0  0  0  0  0  0  0  0  0  0
   -3.7500   -6.4952    0.0000 C   0  0  0  0  0  0  0  0  0  0  0  0
   -3.0000   -7.7942    0.0000 C   0  0  0  0  0  0  0  0  0  0  0  0
   -3.7500   -9.0933    0.0000 S   0  0  0  0  0  0  0  0  0  0  0  0
   -5.2500   -9.0933    0.0000 C   0  0  0  0  0  0  0  0  0  0  0  0
   -6.1317  -10.3068    0.0000 N   0  0  0  0  0  0  0  0  0  0  0  0
   -7.5583   -9.8433    0.0000 C   0  0  0  0  0  0  0  0  0  0  0  0
   -7.5583   -8.3433    0.0000 C   0  0  0  0  0  0  0  0  0  0  0  0
   -6.1317   -7.8797    0.0000 N   0  0  0  0  0  0  0  0  0  0  0  0
   -5.6682   -6.4532    0.0000 C   0  0  0  0  0  0  0  0  0  0  0  0
   -1.5000   -7.7942    0.0000 C   0  0  0  0  0  0  0  0  0  0  0  0
   -0.7500   -9.0933    0.0000 Cl  0  0  0  0  0  0  0  0  0  0  0  0
   -0.7500   -6.4952    0.0000 C   0  0  0  0  0  0  0  0  0  0  0  0
   -3.0000   -2.5981    0.0000 C   0  0  0  0  0  0  0  0  0  0  0  0
   -3.7500   -3.8971    0.0000 C   0  0  0  0  0  0  0  0  0  0  0  0
   -4.5000   -5.1962    0.0000 N   0  0  0  0  0  0  0  0  0  0  0  0
   -3.7500   -1.2990    0.0000 C   0  0  0  0  0  0  0  0  0  0  0  0
   -3.0000    0.0000    0.0000 N   0  0  0  0  0  0  0  0  0  0  0  0
   -1.5000    0.0000    0.0000 C   0  0  0  0  0  0  0  0  0  0  0  0
   -0.7500    1.2990    0.0000 C   0  0  0  0  0  0  0  0  0  0  0  0
    0.7500    1.2990    0.0000 C   0  0  0  0  0  0  0  0  0  0  0  0
    1.5000    2.5981    0.0000 N   0  0  0  0  0  0  0  0  0  0  0  0
    3.0000    2.5981    0.0000 C   0  0  0  0  0  0  0  0  0  0  0  0
    3.7500    3.8971    0.0000 C   0  0  0  0  0  0  0  0  0  0  0  0
    3.0000    5.1962    0.0000 C   0  0  0  0  0  0  0  0  0  0  0  0
    3.7500    6.4952    0.0000 N   0  0  0  0  0  0  0  0  0  0  0  0
    3.1399    7.8655    0.0000 C   0  0  0  0  0  0  0  0  0  0  0  0
    4.2546    8.8692    0.0000 C   0  0  0  0  0  0  0  0  0  0  0  0
    5.5537    8.1192    0.0000 C   0  0  0  0  0  0  0  0  0  0  0  0
    5.2418    6.6520    0.0000 C   0  0  0  0  0  0  0  0  0  0  0  0
    1.5000    5.1962    0.0000 C   0  0  0  0  0  0  0  0  0  0  0  0
    0.7500    3.8971    0.0000 C   0  0  0  0  0  0  0  0  0  0  0  0
  1  2  1  0
  2  3  1  0
  3  4  2  0
  4  5  1  0
  5  6  1  0
  6  7  2  3
  7  8  1  0
  8  9  2  0
  9 10  1  0
 10 11  2  0
 11 12  1  0
 12 13  1  0
 13 14  2  0
 14 15  1  0
 15 16  2  0
 16 17  1  0
 17 18  1  0
 11 19  1  0
 19 20  1  0
 19 21  2  0
  6 22  1  0
 22 23  1  0
 23 24  3  0
 22 25  2  0
 25 26  1  0
 26 27  1  0
 27 28  1  0
 28 29  2  0
 29 30  1  0
 30 31  1  0
 31 32  1  0
 32 33  1  0
 33 34  1  0
 34 35  1  0
 35 36  1  0
 36 37  1  0
 37 38  1  0
 33 39  1  0
 39 40  1  0
 29  3  1  0
 40 30  1  0
 27  5  2  0
 38 34  1  0
 21  8  1  0
 17 13  1  0
M  END
>  <Synonyms>  (28) 
BALAMAPIMOD|MKI-833

>  <Research Codes>  (28) 
MKI-833

>  <Phase>  (28) 
1

>  <Applicants>  (28) 
nan

>  <USAN Stem>  (28) 
'-imod'

>  <USAN Year>  (28) 
2005.0

>  <USAN Stem Definition>  (28) 
immunomodulators: mitogen-activated protein (MAP) kinase inhibitors

>  <USAN Stem Substem>  (28) 
'-imod(-imod (-mapimod))'

>  <First Approval>  (28) 
nan

>  <ATC Codes>  (28) 
nan

>  <Level 4 ATC Codes>  (28) 
nan

>  <Level 3 ATC Codes>  (28) 
nan

>  <Level 2 ATC Codes>  (28) 
nan

>  <Level 1 ATC Codes>  (28) 
nan

>  <Indication Class>  (28) 
nan

>  <Patent>  (28) 
nan

>  <Drug Type>  (28) 
1:Synthetic Small Molecule

>  <Passes Rule of Five>  (28) 
False

>  <First In Class>  (28) 
False

>  <Chirality>  (28) 
Achiral Molecule

>  <Prodrug>  (28) 
False

>  <Oral>  (28) 
False

>  <Parenteral>  (28) 
False

>  <Topical>  (28) 
False

>  <Black Box>  (28) 
False

>  <Availability Type>  (28) 
Unknown

>  <Withdrawn Year>  (28) 
nan

>  <Withdrawn Reason>  (28) 
nan

>  <Withdrawn Country>  (28) 
nan

>  <Withdrawn Class>  (28) 
nan

>  <SMILES>  (28) 
COc1cc2c(Nc3ccc(Sc4nccn4C)c(Cl)c3)c(C#N)cnc2cc1N1CCC(N2CCCC2)CC1

>  <InChi Key>  (28) 
CVAKNHIXTWLGJO-UHFFFAOYSA-N

$$$$
CHEMBL3916243
     RDKit          2D

 26 28  0  0  0  0  0  0  0  0999 V2000
    2.6491   -1.6339    0.0000 C   0  0  0  0  0  0  0  0  0  0  0  0
    1.5000   -2.5981    0.0000 C   0  0  0  0  0  0  0  0  0  0  0  0
    0.7500   -1.2990    0.0000 C   0  0  0  0  0  0  0  0  0  0  0  0
    1.5000    0.0000    0.0000 C   0  0  0  0  0  0  0  0  0  0  0  0
    0.7500    1.2990    0.0000 C   0  0  0  0  0  0  0  0  0  0  0  0
    1.5000    2.5981    0.0000 N   0  0  0  0  0  0  0  0  0  0  0  0
    3.0000    2.5981    0.0000 C   0  0  0  0  0  0  0  0  0  0  0  0
    3.7500    1.2990    0.0000 O   0  0  0  0  0  0  0  0  0  0  0  0
    3.7500    3.8971    0.0000 C   0  0  0  0  0  0  0  0  0  0  0  0
    5.2500    3.8971    0.0000 C   0  0  0  0  0  0  0  0  0  0  0  0
    6.0000    5.1962    0.0000 C   0  0  0  0  0  0  0  0  0  0  0  0
    5.2500    6.4952    0.0000 C   0  0  0  0  0  0  0  0  0  0  0  0
    6.0000    7.7942    0.0000 C   0  0  0  0  0  0  0  0  0  0  0  0
    6.7500    9.0933    0.0000 N   0  0  0  0  0  0  0  0  0  0  0  0
    3.7500    6.4952    0.0000 C   0  0  0  0  0  0  0  0  0  0  0  0
    3.0000    5.1962    0.0000 N   0  0  0  0  0  0  0  0  0  0  0  0
   -0.7500    1.2990    0.0000 C   0  0  0  0  0  0  0  0  0  0  0  0
   -1.5000    0.0000    0.0000 C   0  0  0  0  0  0  0  0  0  0  0  0
   -0.7500   -1.2990    0.0000 C   0  0  0  0  0  0  0  0  0  0  0  0
   -1.5000   -2.5981    0.0000 F   0  0  0  0  0  0  0  0  0  0  0  0
    0.0905   -3.1111    0.0000 C   0  0  0  0  0  0  0  0  0  0  0  0
   -0.1700   -4.5883    0.0000 C   0  0  0  0  0  0  0  0  0  0  0  0
    0.9791   -5.5525    0.0000 S   0  0  0  0  0  0  0  0  0  0  0  0
    2.3886   -5.0395    0.0000 C   0  0  0  0  0  0  0  0  0  0  0  0
    3.5377   -6.0037    0.0000 N   0  0  0  0  0  0  0  0  0  0  0  0
    2.6491   -3.5623    0.0000 N   0  0  0  0  0  0  0  0  0  0  0  0
  2  1  1  6
  2  3  1  0
  3  4  2  0
  4  5  1  0
  5  6  1  0
  6  7  1  0
  7  8  2  0
  7  9  1  0
  9 10  2  0
 10 11  1  0
 11 12  2  0
 12 13  1  0
 13 14  3  0
 12 15  1  0
 15 16  2  0
  5 17  2  0
 17 18  1  0
 18 19  2  0
 19 20  1  0
  2 21  1  0
 21 22  2  0
 22 23  1  0
 23 24  1  0
 24 25  2  0
 24 26  1  0
 26  2  1  0
 19  3  1  0
 16  9  1  0
M  END
>  <Synonyms>  (29) 
ATABECESTAT|JNJ-54861911|JNJ-54861911-AAA|RSC- 385896|RSC-385896

>  <Research Codes>  (29) 
JNJ-54861911|JNJ-54861911-AAA|RSC- 385896|RSC-385896

>  <Phase>  (29) 
1

>  <Applicants>  (29) 
nan

>  <USAN Stem>  (29) 
'-stat'

>  <USAN Year>  (29) 
2018.0

>  <USAN Stem Definition>  (29) 
enzyme inhibitors: beta secretase inhibitors

>  <USAN Stem Substem>  (29) 
'-stat(-stat (-becestat))'

>  <First Approval>  (29) 
nan

>  <ATC Codes>  (29) 
nan

>  <Level 4 ATC Codes>  (29) 
nan

>  <Level 3 ATC Codes>  (29) 
nan

>  <Level 2 ATC Codes>  (29) 
nan

>  <Level 1 ATC Codes>  (29) 
nan

>  <Indication Class>  (29) 
nan

>  <Patent>  (29) 
nan

>  <Drug Type>  (29) 
1:Synthetic Small Molecule

>  <Passes Rule of Five>  (29) 
True

>  <First In Class>  (29) 
False

>  <Chirality>  (29) 
Single Stereoisomer

>  <Prodrug>  (29) 
False

>  <Oral>  (29) 
False

>  <Parenteral>  (29) 
False

>  <Topical>  (29) 
False

>  <Black Box>  (29) 
False

>  <Availability Type>  (29) 
Unknown

>  <Withdrawn Year>  (29) 
nan

>  <Withdrawn Reason>  (29) 
nan

>  <Withdrawn Country>  (29) 
nan

>  <Withdrawn Class>  (29) 
nan

>  <SMILES>  (29) 
C[C@@]1(c2cc(NC(=O)c3ccc(C#N)cn3)ccc2F)C=CSC(N)=N1

>  <InChi Key>  (29) 
VLLFGVHGKLDDLW-SFHVURJKSA-N

$$$$
CHEMBL3911164
     RDKit          2D

 40 42  0  0  0  0  0  0  0  0999 V2000
    3.0000    0.0000    0.0000 C   0  0  0  0  0  0  0  0  0  0  0  0
    1.5000    0.0000    0.0000 C   0  0  0  0  0  0  0  0  0  0  0  0
    0.7500   -1.2990    0.0000 C   0  0  0  0  0  0  0  0  0  0  0  0
   -0.7500   -1.2990    0.0000 C   0  0  0  0  0  0  0  0  0  0  0  0
   -1.5000    0.0000    0.0000 C   0  0  0  0  0  0  0  0  0  0  0  0
   -0.7500    1.2990    0.0000 C   0  0  0  0  0  0  0  0  0  0  0  0
    0.7500    1.2990    0.0000 C   0  0  0  0  0  0  0  0  0  0  0  0
    1.6852    2.4718    0.0000 N   0  0  0  0  0  0  0  0  0  0  0  0
    1.3515    3.9342    0.0000 C   0  0  0  0  0  0  0  0  0  0  0  0
    2.5242    4.8694    0.0000 O   0  0  0  0  0  0  0  0  0  0  0  0
   -0.0000    4.5850    0.0000 C   0  0  0  0  0  0  0  0  0  0  0  0
   -0.0000    6.0850    0.0000 N   0  0  0  0  0  0  0  0  0  0  0  0
   -1.2990    6.8350    0.0000 C   0  0  0  0  0  0  0  0  0  0  0  0
   -2.5981    6.0850    0.0000 O   0  0  0  0  0  0  0  0  0  0  0  0
   -1.2990    8.3350    0.0000 C   0  0  0  0  0  0  0  0  0  0  0  0
   -2.5981    9.0850    0.0000 C   0  0  0  0  0  0  0  0  0  0  0  0
   -2.5981   10.5850    0.0000 C   0  0  0  0  0  0  0  0  0  0  0  0
   -3.8971   11.3350    0.0000 C   0  0  0  0  0  0  0  0  0  0  0  0
   -5.1962   12.0850    0.0000 F   0  0  0  0  0  0  0  0  0  0  0  0
   -3.1471   12.6340    0.0000 F   0  0  0  0  0  0  0  0  0  0  0  0
   -4.6471   10.0360    0.0000 F   0  0  0  0  0  0  0  0  0  0  0  0
   -0.0000    9.0850    0.0000 C   0  0  0  0  0  0  0  0  0  0  0  0
   -0.0000   10.5850    0.0000 C   0  0  0  0  0  0  0  0  0  0  0  0
    1.2990   11.3350    0.0000 C   0  0  0  0  0  0  0  0  0  0  0  0
    1.2990   12.8350    0.0000 C   0  0  0  0  0  0  0  0  0  0  0  0
    1.2990   14.3350    0.0000 F   0  0  0  0  0  0  0  0  0  0  0  0
    2.7990   12.8350    0.0000 F   0  0  0  0  0  0  0  0  0  0  0  0
   -0.2010   12.8350    0.0000 F   0  0  0  0  0  0  0  0  0  0  0  0
    1.2990    8.3350    0.0000 C   0  0  0  0  0  0  0  0  0  0  0  0
    2.5981    9.0850    0.0000 N   0  0  0  0  0  0  0  0  0  0  0  0
    1.2990    6.8350    0.0000 O   0  0  0  0  0  0  0  0  0  0  0  0
   -1.3515    3.9342    0.0000 N   0  0  0  0  0  0  0  0  0  0  0  0
   -1.6852    2.4718    0.0000 C   0  0  0  0  0  0  0  0  0  0  0  0
   -3.1476    2.1380    0.0000 C   0  0  0  0  0  0  0  0  0  0  0  0
   -4.1679    3.2376    0.0000 C   0  0  0  0  0  0  0  0  0  0  0  0
   -5.6303    2.9038    0.0000 C   0  0  0  0  0  0  0  0  0  0  0  0
   -6.0724    1.4704    0.0000 C   0  0  0  0  0  0  0  0  0  0  0  0
   -5.0522    0.3709    0.0000 C   0  0  0  0  0  0  0  0  0  0  0  0
   -5.4943   -1.0625    0.0000 F   0  0  0  0  0  0  0  0  0  0  0  0
   -3.5898    0.7046    0.0000 C   0  0  0  0  0  0  0  0  0  0  0  0
  1  2  1  0
  2  3  2  0
  3  4  1  0
  4  5  2  0
  5  6  1  0
  6  7  1  0
  7  8  2  0
  8  9  1  0
  9 10  2  0
  9 11  1  0
 11 12  2  3
 12 13  1  0
 13 14  2  0
 13 15  1  0
 15 16  1  0
 16 17  1  0
 17 18  1  0
 18 19  1  0
 18 20  1  0
 18 21  1  0
 15 22  1  0
 22 23  1  0
 23 24  1  0
 24 25  1  0
 25 26  1  0
 25 27  1  0
 25 28  1  0
 22 29  1  0
 29 30  1  0
 29 31  1  0
 11 32  1  0
 32 33  1  0
 33 34  1  0
 34 35  2  0
 35 36  1  0
 36 37  2  0
 37 38  1  0
 38 39  1  0
 38 40  2  0
  7  2  1  0
 40 34  1  0
 33  6  2  0
M  END
>  <Synonyms>  (30) 
BMS 986115|BMS-986115

>  <Research Codes>  (30) 
nan

>  <Phase>  (30) 
1

>  <Applicants>  (30) 
nan

>  <USAN Stem>  (30) 
nan

>  <USAN Year>  (30) 
nan

>  <USAN Stem Definition>  (30) 
nan

>  <USAN Stem Substem>  (30) 
nan

>  <First Approval>  (30) 
nan

>  <ATC Codes>  (30) 
nan

>  <Level 4 ATC Codes>  (30) 
nan

>  <Level 3 ATC Codes>  (30) 
nan

>  <Level 2 ATC Codes>  (30) 
nan

>  <Level 1 ATC Codes>  (30) 
nan

>  <Indication Class>  (30) 
nan

>  <Patent>  (30) 
nan

>  <Drug Type>  (30) 
1:Synthetic Small Molecule

>  <Passes Rule of Five>  (30) 
False

>  <First In Class>  (30) 
False

>  <Chirality>  (30) 
Single Stereoisomer

>  <Prodrug>  (30) 
False

>  <Oral>  (30) 
False

>  <Parenteral>  (30) 
False

>  <Topical>  (30) 
False

>  <Black Box>  (30) 
False

>  <Availability Type>  (30) 
Unknown

>  <Withdrawn Year>  (30) 
nan

>  <Withdrawn Reason>  (30) 
nan

>  <Withdrawn Country>  (30) 
nan

>  <Withdrawn Class>  (30) 
nan

>  <SMILES>  (30) 
Cc1cccc2c1NC(=O)[C@@H](NC(=O)[C@H](CCC(F)(F)F)[C@H](CCC(F)(F)F)C(N)=O)N=C2c1cccc(F)c1

>  <InChi Key>  (30) 
KUOYGZLAVMLVTA-UHFFFAOYSA-N

$$$$
CHEMBL1742483
     RDKit          2D

 25 24  0  0  0  0  0  0  0  0999 V2000
   -3.0000   -2.5981    0.0000 C   0  0  0  0  0  0  0  0  0  0  0  0
   -2.2500   -1.2990    0.0000 C   0  0  0  0  0  0  0  0  0  0  0  0
   -0.7500   -1.2990    0.0000 C   0  0  0  0  0  0  0  0  0  0  0  0
    0.0000   -2.5981    0.0000 O   0  0  0  0  0  0  0  0  0  0  0  0
    0.0000    0.0000    0.0000 C   0  0  0  0  0  0  0  0  0  0  0  0
    1.5000    0.0000    0.0000 C   0  0  0  0  0  0  0  0  0  0  0  0
    2.2500    1.2990    0.0000 C   0  0  0  0  0  0  0  0  0  0  0  0
    3.7500    1.2990    0.0000 C   0  0  0  0  0  0  0  0  0  0  0  0
    4.5000    0.0000    0.0000 C   0  0  0  0  0  0  0  0  0  0  0  0
    6.0000    0.0000    0.0000 C   0  0  0  0  0  0  0  0  0  0  0  0
    6.7500    1.2990    0.0000 O   0  0  0  0  0  0  0  0  0  0  0  0
    6.7500   -1.2990    0.0000 C   0  0  0  0  0  0  0  0  0  0  0  0
    8.2500   -1.2990    0.0000 C   0  0  0  0  0  0  0  0  0  0  0  0
    9.0000   -2.5981    0.0000 C   0  0  0  0  0  0  0  0  0  0  0  0
   10.5000   -2.5981    0.0000 C   0  0  0  0  0  0  0  0  0  0  0  0
   11.2500   -3.8971    0.0000 C   0  0  0  0  0  0  0  0  0  0  0  0
   12.7500   -3.8971    0.0000 C   0  0  0  0  0  0  0  0  0  0  0  0
   13.5000   -2.5981    0.0000 C   0  0  0  0  0  0  0  0  0  0  0  0
   12.7500   -1.2990    0.0000 O   0  0  0  0  0  0  0  0  0  0  0  0
   15.0000   -2.5981    0.0000 C   0  0  0  0  0  0  0  0  0  0  0  0
   15.7500   -1.2990    0.0000 C   0  0  0  0  0  0  0  0  0  0  0  0
   17.2500   -1.2990    0.0000 C   0  0  0  0  0  0  0  0  0  0  0  0
   18.0000   -0.0000    0.0000 C   0  0  0  0  0  0  0  0  0  0  0  0
   17.2500    1.2990    0.0000 O   0  0  0  0  0  0  0  0  0  0  0  0
   19.5000   -0.0000    0.0000 O   0  0  0  0  0  0  0  0  0  0  0  0
  1  2  1  0
  2  3  1  0
  3  4  1  6
  3  5  1  0
  5  6  2  0
  6  7  1  0
  7  8  2  0
  8  9  1  0
  9 10  1  0
 10 11  1  1
 10 12  1  0
 12 13  2  0
 13 14  1  0
 14 15  2  0
 15 16  1  0
 16 17  2  0
 17 18  1  0
 18 19  1  1
 18 20  1  0
 20 21  1  0
 21 22  1  0
 22 23  1  0
 23 24  2  0
 23 25  1  0
M  END
>  <Synonyms>  (31) 
J2.218.407E|RESOLVIN E1|RX-10001

>  <Research Codes>  (31) 
J2.218.407E|RX-10001

>  <Phase>  (31) 
1

>  <Applicants>  (31) 
nan

>  <USAN Stem>  (31) 
nan

>  <USAN Year>  (31) 
nan

>  <USAN Stem Definition>  (31) 
nan

>  <USAN Stem Substem>  (31) 
nan

>  <First Approval>  (31) 
nan

>  <ATC Codes>  (31) 
nan

>  <Level 4 ATC Codes>  (31) 
nan

>  <Level 3 ATC Codes>  (31) 
nan

>  <Level 2 ATC Codes>  (31) 
nan

>  <Level 1 ATC Codes>  (31) 
nan

>  <Indication Class>  (31) 
nan

>  <Patent>  (31) 
nan

>  <Drug Type>  (31) 
1:Synthetic Small Molecule

>  <Passes Rule of Five>  (31) 
True

>  <First In Class>  (31) 
False

>  <Chirality>  (31) 
Single Stereoisomer

>  <Prodrug>  (31) 
False

>  <Oral>  (31) 
False

>  <Parenteral>  (31) 
False

>  <Topical>  (31) 
False

>  <Black Box>  (31) 
False

>  <Availability Type>  (31) 
Unknown

>  <Withdrawn Year>  (31) 
nan

>  <Withdrawn Reason>  (31) 
nan

>  <Withdrawn Country>  (31) 
nan

>  <Withdrawn Class>  (31) 
nan

>  <SMILES>  (31) 
CC[C@@H](O)/C=C/C=C\C[C@@H](O)/C=C/C=C/C=C\[C@@H](O)CCCC(=O)O

>  <InChi Key>  (31) 
AOPOCGPBAIARAV-OTBJXLELSA-N

$$$$
CHEMBL1741078
     RDKit          2D

 31 34  0  0  0  0  0  0  0  0999 V2000
    3.0000   -0.0000    0.0000 C   0  0  0  0  0  0  0  0  0  0  0  0
    1.5000   -0.0000    0.0000 C   0  0  0  0  0  0  0  0  0  0  0  0
    0.7500   -1.2990    0.0000 C   0  0  0  0  0  0  0  0  0  0  0  0
   -0.7500   -1.2990    0.0000 C   0  0  0  0  0  0  0  0  0  0  0  0
   -1.5000   -0.0000    0.0000 C   0  0  0  0  0  0  0  0  0  0  0  0
   -3.0000   -0.0000    0.0000 C   0  0  0  0  0  0  0  0  0  0  0  0
   -3.5275   -1.2427    0.0000 O   0  0  0  0  0  0  0  0  0  0  0  0
   -3.7500    1.2990    0.0000 N   0  0  0  0  0  0  0  0  0  0  0  0
   -5.2500    1.2990    0.0000 C   0  0  0  0  0  0  0  0  0  0  0  0
   -6.1317    2.5126    0.0000 C   0  0  0  0  0  0  0  0  0  0  0  0
   -7.5583    2.0490    0.0000 C   0  0  0  0  0  0  0  0  0  0  0  0
   -8.7718    2.9307    0.0000 C   0  0  0  0  0  0  0  0  0  0  0  0
  -10.1421    2.3206    0.0000 C   0  0  0  0  0  0  0  0  0  0  0  0
  -11.3556    3.2023    0.0000 C   0  0  0  0  0  0  0  0  0  0  0  0
  -11.1988    4.6941    0.0000 C   0  0  0  0  0  0  0  0  0  0  0  0
   -9.8285    5.3042    0.0000 C   0  0  0  0  0  0  0  0  0  0  0  0
   -8.6150    4.4225    0.0000 C   0  0  0  0  0  0  0  0  0  0  0  0
   -7.5583    0.5490    0.0000 S   0  0  0  0  0  0  0  0  0  0  0  0
   -6.1317    0.0855    0.0000 C   0  0  0  0  0  0  0  0  0  0  0  0
   -5.6682   -1.3411    0.0000 C   0  0  0  0  0  0  0  0  0  0  0  0
   -6.6718   -2.4558    0.0000 O   0  0  0  0  0  0  0  0  0  0  0  0
   -4.3917   -1.7806    0.0000 O   0  0  0  0  0  0  0  0  0  0  0  0
   -3.0000    2.5981    0.0000 C   0  0  0  0  0  0  0  0  0  0  0  0
   -1.5000    2.5981    0.0000 C   0  0  0  0  0  0  0  0  0  0  0  0
   -0.7500    3.8971    0.0000 C   0  0  0  0  0  0  0  0  0  0  0  0
   -1.5000    5.1962    0.0000 C   0  0  0  0  0  0  0  0  0  0  0  0
   -0.7500    6.4952    0.0000 O   0  0  0  0  0  0  0  0  0  0  0  0
   -3.0000    5.1962    0.0000 C   0  0  0  0  0  0  0  0  0  0  0  0
   -3.7500    3.8971    0.0000 C   0  0  0  0  0  0  0  0  0  0  0  0
   -0.7500    1.2990    0.0000 C   0  0  0  0  0  0  0  0  0  0  0  0
    0.7500    1.2990    0.0000 C   0  0  0  0  0  0  0  0  0  0  0  0
  1  2  1  0
  2  3  1  0
  3  4  1  0
  4  5  1  0
  5  6  1  0
  6  7  2  0
  6  8  1  0
  8  9  1  0
  9 10  1  0
 10 11  2  0
 11 12  1  0
 12 13  2  0
 13 14  1  0
 14 15  2  0
 15 16  1  0
 16 17  2  0
 11 18  1  0
 18 19  1  0
 19 20  1  0
 20 21  2  0
 20 22  1  0
  8 23  1  0
 23 24  1  0
 24 25  1  0
 25 26  1  0
 26 27  1  0
 26 28  1  0
 28 29  1  0
  5 30  1  0
 30 31  1  0
 31  2  1  0
 19  9  2  0
 29 23  1  0
 17 12  1  0
M  END
>  <Synonyms>  (32) 
nan

>  <Research Codes>  (32) 
nan

>  <Phase>  (32) 
1

>  <Applicants>  (32) 
nan

>  <USAN Stem>  (32) 
nan

>  <USAN Year>  (32) 
nan

>  <USAN Stem Definition>  (32) 
nan

>  <USAN Stem Substem>  (32) 
nan

>  <First Approval>  (32) 
nan

>  <ATC Codes>  (32) 
nan

>  <Level 4 ATC Codes>  (32) 
nan

>  <Level 3 ATC Codes>  (32) 
nan

>  <Level 2 ATC Codes>  (32) 
nan

>  <Level 1 ATC Codes>  (32) 
nan

>  <Indication Class>  (32) 
nan

>  <Patent>  (32) 
nan

>  <Drug Type>  (32) 
1:Synthetic Small Molecule

>  <Passes Rule of Five>  (32) 
False

>  <First In Class>  (32) 
False

>  <Chirality>  (32) 
Unknown

>  <Prodrug>  (32) 
False

>  <Oral>  (32) 
False

>  <Parenteral>  (32) 
False

>  <Topical>  (32) 
False

>  <Black Box>  (32) 
False

>  <Availability Type>  (32) 
Unknown

>  <Withdrawn Year>  (32) 
nan

>  <Withdrawn Reason>  (32) 
nan

>  <Withdrawn Country>  (32) 
nan

>  <Withdrawn Class>  (32) 
nan

>  <SMILES>  (32) 
CC1CCC(C(=O)N(c2cc(-c3ccccc3)sc2C(=O)O)C2CCC(O)CC2)CC1

>  <InChi Key>  (32) 
CKVYPTIWERNFSU-UHFFFAOYSA-N

$$$$
CHEMBL2107802
     RDKit          2D

 21 21  0  0  0  0  0  0  0  0999 V2000
    3.0000    0.0000    0.0000 C   0  0  0  0  0  0  0  0  0  0  0  0
    1.5000    0.0000    0.0000 C   0  0  0  0  0  0  0  0  0  0  0  0
    0.7500   -1.2990    0.0000 C   0  0  0  0  0  0  0  0  0  0  0  0
   -0.7500   -1.2990    0.0000 C   0  0  0  0  0  0  0  0  0  0  0  0
   -1.5000   -2.5981    0.0000 S   0  0  0  0  0  0  0  0  0  0  0  0
   -2.2500   -3.8971    0.0000 C   0  0  0  0  0  0  0  0  0  0  0  0
   -2.6184   -2.1234    0.0000 O   0  0  0  0  0  0  0  0  0  0  0  0
   -0.2010   -3.3481    0.0000 O   0  0  0  0  0  0  0  0  0  0  0  0
   -1.5000    0.0000    0.0000 C   0  0  0  0  0  0  0  0  0  0  0  0
   -3.0000    0.0000    0.0000 S   0  0  0  0  0  0  0  0  0  0  0  0
   -4.5000    0.0000    0.0000 C   0  0  0  0  0  0  0  0  0  0  0  0
   -3.0000    1.5000    0.0000 O   0  0  0  0  0  0  0  0  0  0  0  0
   -3.1481   -1.2059    0.0000 O   0  0  0  0  0  0  0  0  0  0  0  0
   -0.7500    1.2990    0.0000 C   0  0  0  0  0  0  0  0  0  0  0  0
    0.7500    1.2990    0.0000 C   0  0  0  0  0  0  0  0  0  0  0  0
    1.5000    2.5981    0.0000 C   0  0  0  0  0  0  0  0  0  0  0  0
    3.0000    2.5981    0.0000 O   0  0  0  0  0  0  0  0  0  0  0  0
    0.7500    3.8971    0.0000 N   0  0  0  0  0  0  0  0  0  0  0  0
    1.5000    5.1962    0.0000 C   0  0  0  0  0  0  0  0  0  0  0  0
    0.7500    6.4952    0.0000 N   0  0  0  0  0  0  0  0  0  0  0  0
    3.0000    5.1962    0.0000 N   0  0  0  0  0  0  0  0  0  0  0  0
  1  2  1  0
  2  3  2  0
  3  4  1  0
  4  5  1  0
  5  6  1  0
  5  7  2  0
  5  8  2  0
  4  9  2  0
  9 10  1  0
 10 11  1  0
 10 12  2  0
 10 13  2  0
  9 14  1  0
 14 15  2  0
 15 16  1  0
 16 17  2  0
 16 18  1  0
 18 19  2  3
 19 20  1  0
 19 21  1  0
 15  2  1  0
M  END
>  <Synonyms>  (33) 
RIMEPORIDE

>  <Research Codes>  (33) 
nan

>  <Phase>  (33) 
1

>  <Applicants>  (33) 
nan

>  <USAN Stem>  (33) 
nan

>  <USAN Year>  (33) 
nan

>  <USAN Stem Definition>  (33) 
nan

>  <USAN Stem Substem>  (33) 
nan

>  <First Approval>  (33) 
nan

>  <ATC Codes>  (33) 
nan

>  <Level 4 ATC Codes>  (33) 
nan

>  <Level 3 ATC Codes>  (33) 
nan

>  <Level 2 ATC Codes>  (33) 
nan

>  <Level 1 ATC Codes>  (33) 
nan

>  <Indication Class>  (33) 
nan

>  <Patent>  (33) 
nan

>  <Drug Type>  (33) 
1:Synthetic Small Molecule

>  <Passes Rule of Five>  (33) 
True

>  <First In Class>  (33) 
False

>  <Chirality>  (33) 
Achiral Molecule

>  <Prodrug>  (33) 
False

>  <Oral>  (33) 
False

>  <Parenteral>  (33) 
False

>  <Topical>  (33) 
False

>  <Black Box>  (33) 
False

>  <Availability Type>  (33) 
Unknown

>  <Withdrawn Year>  (33) 
nan

>  <Withdrawn Reason>  (33) 
nan

>  <Withdrawn Country>  (33) 
nan

>  <Withdrawn Class>  (33) 
nan

>  <SMILES>  (33) 
Cc1cc(S(C)(=O)=O)c(S(C)(=O)=O)cc1C(=O)NC(=N)N

>  <InChi Key>  (33) 
GROMEQPXDKRRIE-UHFFFAOYSA-N

$$$$
CHEMBL2106468
     RDKit          2D

 23 23  0  0  0  0  0  0  0  0999 V2000
    9.7500   -3.8971    0.0000 C   0  0  0  0  0  0  0  0  0  0  0  0
    8.2500   -3.8971    0.0000 C   0  0  0  0  0  0  0  0  0  0  0  0
    7.5000   -2.5981    0.0000 N   0  0  0  0  0  0  0  0  0  0  0  0
    8.2500   -1.2990    0.0000 C   0  0  0  0  0  0  0  0  0  0  0  0
    9.7500   -1.2990    0.0000 C   0  0  0  0  0  0  0  0  0  0  0  0
    6.0000   -2.5981    0.0000 C   0  0  0  0  0  0  0  0  0  0  0  0
    5.2500   -3.8971    0.0000 O   0  0  0  0  0  0  0  0  0  0  0  0
    5.2500   -1.2990    0.0000 C   0  0  0  0  0  0  0  0  0  0  0  0
    3.7500   -1.2990    0.0000 N   0  0  0  0  0  0  0  0  0  0  0  0
    3.0000    0.0000    0.0000 C   0  0  0  0  0  0  0  0  0  0  0  0
    3.7500    1.2990    0.0000 O   0  0  0  0  0  0  0  0  0  0  0  0
    1.5000    0.0000    0.0000 C   0  0  0  0  0  0  0  0  0  0  0  0
    0.7500   -1.2990    0.0000 C   0  0  0  0  0  0  0  0  0  0  0  0
   -0.7500   -1.2990    0.0000 C   0  0  0  0  0  0  0  0  0  0  0  0
   -1.5000   -2.5981    0.0000 O   0  0  0  0  0  0  0  0  0  0  0  0
   -3.0000   -2.5981    0.0000 C   0  0  0  0  0  0  0  0  0  0  0  0
   -1.5000    0.0000    0.0000 C   0  0  0  0  0  0  0  0  0  0  0  0
   -3.0000    0.0000    0.0000 O   0  0  0  0  0  0  0  0  0  0  0  0
   -3.7500    1.2990    0.0000 C   0  0  0  0  0  0  0  0  0  0  0  0
   -0.7500    1.2990    0.0000 C   0  0  0  0  0  0  0  0  0  0  0  0
   -1.5000    2.5981    0.0000 O   0  0  0  0  0  0  0  0  0  0  0  0
   -0.7500    3.8971    0.0000 C   0  0  0  0  0  0  0  0  0  0  0  0
    0.7500    1.2990    0.0000 C   0  0  0  0  0  0  0  0  0  0  0  0
  1  2  1  0
  2  3  1  0
  3  4  1  0
  4  5  1  0
  3  6  1  0
  6  7  2  0
  6  8  1  0
  8  9  1  0
  9 10  1  0
 10 11  2  0
 10 12  1  0
 12 13  2  0
 13 14  1  0
 14 15  1  0
 15 16  1  0
 14 17  2  0
 17 18  1  0
 18 19  1  0
 17 20  1  0
 20 21  1  0
 21 22  1  0
 20 23  2  0
 23 12  1  0
M  END
>  <Synonyms>  (34) 
R-548|TRICETAMIDE

>  <Research Codes>  (34) 
R-548

>  <Phase>  (34) 
1

>  <Applicants>  (34) 
nan

>  <USAN Stem>  (34) 
nan

>  <USAN Year>  (34) 
1963.0

>  <USAN Stem Definition>  (34) 
nan

>  <USAN Stem Substem>  (34) 
nan

>  <First Approval>  (34) 
nan

>  <ATC Codes>  (34) 
nan

>  <Level 4 ATC Codes>  (34) 
nan

>  <Level 3 ATC Codes>  (34) 
nan

>  <Level 2 ATC Codes>  (34) 
nan

>  <Level 1 ATC Codes>  (34) 
nan

>  <Indication Class>  (34) 
Sedative-Hypnotic

>  <Patent>  (34) 
nan

>  <Drug Type>  (34) 
1:Synthetic Small Molecule

>  <Passes Rule of Five>  (34) 
True

>  <First In Class>  (34) 
False

>  <Chirality>  (34) 
Achiral Molecule

>  <Prodrug>  (34) 
False

>  <Oral>  (34) 
False

>  <Parenteral>  (34) 
False

>  <Topical>  (34) 
False

>  <Black Box>  (34) 
False

>  <Availability Type>  (34) 
Unknown

>  <Withdrawn Year>  (34) 
nan

>  <Withdrawn Reason>  (34) 
nan

>  <Withdrawn Country>  (34) 
nan

>  <Withdrawn Class>  (34) 
nan

>  <SMILES>  (34) 
CCN(CC)C(=O)CNC(=O)c1cc(OC)c(OC)c(OC)c1

>  <InChi Key>  (34) 
NLRFFZRHTICQBO-UHFFFAOYSA-N

$$$$
CHEMBL2107372
     RDKit          2D

 63 69  0  0  0  0  0  0  0  0999 V2000
    3.8971   -1.8107    0.0000 C   0  0  0  0  0  0  0  0  0  0  0  0
    2.5981   -1.0607    0.0000 C   0  0  0  0  0  0  0  0  0  0  0  0
    2.5981    0.4393    0.0000 O   0  0  0  0  0  0  0  0  0  0  0  0
    1.2990   -1.8107    0.0000 O   0  0  0  0  0  0  0  0  0  0  0  0
   -0.0000   -1.0607    0.0000 C   0  0  0  0  0  0  0  0  0  0  0  0
    1.0607    0.0000    0.0000 C   0  0  0  0  0  0  0  0  0  0  0  0
    0.0000    1.0607    0.0000 O   0  0  0  0  0  0  0  0  0  0  0  0
   -1.0607    0.0000    0.0000 C   0  0  0  0  0  0  0  0  0  0  0  0
   -2.5095   -0.3882    0.0000 C   0  0  0  0  0  0  0  0  0  0  0  0
   -2.8978   -1.8371    0.0000 C   0  0  0  0  0  0  0  0  0  0  0  0
   -4.3467   -2.2253    0.0000 O   0  0  0  0  0  0  0  0  0  0  0  0
   -1.8371   -2.8978    0.0000 C   0  0  0  0  0  0  0  0  0  0  0  0
   -3.3243   -3.0936    0.0000 C   0  0  0  0  0  0  0  0  0  0  0  0
   -2.5871   -4.1968    0.0000 C   0  0  0  0  0  0  0  0  0  0  0  0
   -4.0743   -4.0010    0.0000 O   0  0  0  0  0  0  0  0  0  0  0  0
   -2.1989   -5.6457    0.0000 C   0  0  0  0  0  0  0  0  0  0  0  0
   -3.3889   -6.5588    0.0000 O   0  0  0  0  0  0  0  0  0  0  0  0
   -4.7747   -5.9848    0.0000 C   0  0  0  0  0  0  0  0  0  0  0  0
   -4.9705   -4.4977    0.0000 O   0  0  0  0  0  0  0  0  0  0  0  0
   -5.9648   -6.8980    0.0000 C   0  0  0  0  0  0  0  0  0  0  0  0
   -5.9255   -8.3974    0.0000 C   0  0  0  0  0  0  0  0  0  0  0  0
   -7.3395   -8.8982    0.0000 C   0  0  0  0  0  0  0  0  0  0  0  0
   -8.2526   -7.7081    0.0000 C   0  0  0  0  0  0  0  0  0  0  0  0
   -7.4030   -6.4719    0.0000 C   0  0  0  0  0  0  0  0  0  0  0  0
   -0.8999   -6.3957    0.0000 C   0  0  0  0  0  0  0  0  0  0  0  0
    0.1510   -7.4801    0.0000 C   0  0  0  0  0  0  0  0  0  0  0  0
   -0.4230   -8.8659    0.0000 C   0  0  0  0  0  0  0  0  0  0  0  0
    1.6382   -7.2843    0.0000 C   0  0  0  0  0  0  0  0  0  0  0  0
    2.5513   -8.4743    0.0000 O   0  0  0  0  0  0  0  0  0  0  0  0
    4.0385   -8.2785    0.0000 C   0  0  0  0  0  0  0  0  0  0  0  0
    4.6125   -6.8927    0.0000 O   0  0  0  0  0  0  0  0  0  0  0  0
    4.9516   -9.4686    0.0000 C   0  0  0  0  0  0  0  0  0  0  0  0
    4.3776  -10.8544    0.0000 O   0  0  0  0  0  0  0  0  0  0  0  0
    6.4388   -9.2728    0.0000 C   0  0  0  0  0  0  0  0  0  0  0  0
    7.0128   -7.8869    0.0000 N   0  0  0  0  0  0  0  0  0  0  0  0
    8.5000   -7.6912    0.0000 C   0  0  0  0  0  0  0  0  0  0  0  0
    9.4131   -8.8812    0.0000 O   0  0  0  0  0  0  0  0  0  0  0  0
    9.0740   -6.3053    0.0000 O   0  0  0  0  0  0  0  0  0  0  0  0
   10.5612   -6.1096    0.0000 C   0  0  0  0  0  0  0  0  0  0  0  0
   11.1352   -4.7237    0.0000 C   0  0  0  0  0  0  0  0  0  0  0  0
   11.4743   -7.2996    0.0000 C   0  0  0  0  0  0  0  0  0  0  0  0
    7.3519  -10.4628    0.0000 C   0  0  0  0  0  0  0  0  0  0  0  0
    8.8514  -10.4235    0.0000 C   0  0  0  0  0  0  0  0  0  0  0  0
    9.3521  -11.8375    0.0000 C   0  0  0  0  0  0  0  0  0  0  0  0
    8.1621  -12.7506    0.0000 C   0  0  0  0  0  0  0  0  0  0  0  0
    6.9259  -11.9010    0.0000 S   0  0  0  0  0  0  0  0  0  0  0  0
    2.2122   -5.8985    0.0000 C   0  0  0  0  0  0  0  0  0  0  0  0
    1.2990   -4.7084    0.0000 C   0  0  0  0  0  0  0  0  0  0  0  0
    2.7862   -4.9042    0.0000 O   0  0  0  0  0  0  0  0  0  0  0  0
    0.9108   -3.2595    0.0000 C   0  0  0  0  0  0  0  0  0  0  0  0
    2.1008   -2.3464    0.0000 O   0  0  0  0  0  0  0  0  0  0  0  0
    3.4867   -2.9204    0.0000 C   0  0  0  0  0  0  0  0  0  0  0  0
    3.6824   -4.4076    0.0000 O   0  0  0  0  0  0  0  0  0  0  0  0
    4.6767   -2.0073    0.0000 C   0  0  0  0  0  0  0  0  0  0  0  0
    6.0625   -2.5813    0.0000 C   0  0  0  0  0  0  0  0  0  0  0  0
    7.2525   -1.6682    0.0000 C   0  0  0  0  0  0  0  0  0  0  0  0
    7.0567   -0.1810    0.0000 C   0  0  0  0  0  0  0  0  0  0  0  0
    5.6709    0.3930    0.0000 C   0  0  0  0  0  0  0  0  0  0  0  0
    4.4809   -0.5201    0.0000 C   0  0  0  0  0  0  0  0  0  0  0  0
   -0.3882   -2.5095    0.0000 C   0  0  0  0  0  0  0  0  0  0  0  0
    0.5490   -6.0075    0.0000 C   0  0  0  0  0  0  0  0  0  0  0  0
    1.5054   -6.5377    0.0000 C   0  0  0  0  0  0  0  0  0  0  0  0
    0.9120   -7.4629    0.0000 C   0  0  0  0  0  0  0  0  0  0  0  0
  1  2  1  0
  2  3  2  0
  2  4  1  0
  5  4  1  6
  5  6  1  0
  6  7  1  0
  7  8  1  0
  8  9  1  1
  9 10  1  0
 10 11  1  1
 10 12  1  0
 12 13  1  1
 12 14  1  0
 14 15  2  0
 14 16  1  0
 16 17  1  0
 17 18  1  0
 18 19  2  0
 18 20  1  0
 20 21  1  0
 21 22  1  0
 22 23  1  0
 23 24  1  0
 16 25  2  0
 25 26  1  0
 26 27  1  0
 26 28  1  0
 28 29  1  6
 29 30  1  0
 30 31  2  0
 30 32  1  0
 32 33  1  0
 32 34  1  0
 34 35  1  0
 35 36  1  0
 36 37  2  0
 36 38  1  0
 38 39  1  0
 39 40  1  0
 39 41  1  0
 34 42  1  0
 42 43  2  0
 43 44  1  0
 44 45  2  0
 45 46  1  0
 28 47  1  0
 47 48  1  0
 48 49  1  1
 48 50  1  0
 50 51  1  6
 51 52  1  0
 52 53  2  0
 52 54  1  0
 54 55  2  0
 55 56  1  0
 56 57  2  0
 57 58  1  0
 58 59  2  0
 60 50  1  1
 48 61  1  0
 61 62  1  0
 61 63  1  0
  8  5  1  0
 60 12  1  0
 60  5  1  0
 24 20  1  0
 61 25  1  0
 46 42  1  0
 59 54  1  0
M  END
>  <Synonyms>  (35) 
MST-997|SIMOTAXEL

>  <Research Codes>  (35) 
MST-997

>  <Phase>  (35) 
1

>  <Applicants>  (35) 
nan

>  <USAN Stem>  (35) 
'-taxel'

>  <USAN Year>  (35) 
2005.0

>  <USAN Stem Definition>  (35) 
antineoplastics, taxane derivatives

>  <USAN Stem Substem>  (35) 
'-taxel(-taxel)'

>  <First Approval>  (35) 
nan

>  <ATC Codes>  (35) 
nan

>  <Level 4 ATC Codes>  (35) 
nan

>  <Level 3 ATC Codes>  (35) 
nan

>  <Level 2 ATC Codes>  (35) 
nan

>  <Level 1 ATC Codes>  (35) 
nan

>  <Indication Class>  (35) 
nan

>  <Patent>  (35) 
nan

>  <Drug Type>  (35) 
7:Natural Product-derived

>  <Passes Rule of Five>  (35) 
False

>  <First In Class>  (35) 
False

>  <Chirality>  (35) 
Single Stereoisomer

>  <Prodrug>  (35) 
False

>  <Oral>  (35) 
False

>  <Parenteral>  (35) 
False

>  <Topical>  (35) 
False

>  <Black Box>  (35) 
False

>  <Availability Type>  (35) 
Unknown

>  <Withdrawn Year>  (35) 
nan

>  <Withdrawn Reason>  (35) 
nan

>  <Withdrawn Country>  (35) 
nan

>  <Withdrawn Class>  (35) 
nan

>  <SMILES>  (35) 
CC(=O)O[C@@]12CO[C@@H]1C[C@H](O)[C@@]1(C)C(=O)[C@H](OC(=O)C3CCCC3)C3=C(C)[C@@H](OC(=O)[C@H](O)[C@@H](NC(=O)OC(C)C)c4cccs4)C[C@@](O)([C@@H](OC(=O)c4ccccc4)[C@@H]12)C3(C)C

>  <InChi Key>  (35) 
DNDNZEDHZUKSKK-TYJWTDQHSA-N

$$$$
CHEMBL2104927
     RDKit          2D

 37 40  0  0  0  0  0  0  0  0999 V2000
    0.7500   -6.4952    0.0000 C   0  0  0  0  0  0  0  0  0  0  0  0
    1.5000   -5.1962    0.0000 N   0  0  0  0  0  0  0  0  0  0  0  0
    0.7500   -3.8971    0.0000 C   0  0  0  0  0  0  0  0  0  0  0  0
    1.5000   -2.5981    0.0000 C   0  0  0  0  0  0  0  0  0  0  0  0
    0.7500   -1.2990    0.0000 C   0  0  0  0  0  0  0  0  0  0  0  0
    1.5000    0.0000    0.0000 C   0  0  0  0  0  0  0  0  0  0  0  0
    0.7500    1.2990    0.0000 C   0  0  0  0  0  0  0  0  0  0  0  0
    1.5000    2.5981    0.0000 C   0  0  0  0  0  0  0  0  0  0  0  0
    2.2500    3.8971    0.0000 F   0  0  0  0  0  0  0  0  0  0  0  0
    2.7990    1.8481    0.0000 F   0  0  0  0  0  0  0  0  0  0  0  0
    0.2010    3.3481    0.0000 F   0  0  0  0  0  0  0  0  0  0  0  0
   -0.7500    1.2990    0.0000 C   0  0  0  0  0  0  0  0  0  0  0  0
   -1.5000    0.0000    0.0000 C   0  0  0  0  0  0  0  0  0  0  0  0
   -3.0000    0.0000    0.0000 C   0  0  0  0  0  0  0  0  0  0  0  0
   -4.5000    0.0000    0.0000 F   0  0  0  0  0  0  0  0  0  0  0  0
   -3.0000    1.5000    0.0000 F   0  0  0  0  0  0  0  0  0  0  0  0
   -3.0000   -1.5000    0.0000 F   0  0  0  0  0  0  0  0  0  0  0  0
   -0.7500   -1.2990    0.0000 C   0  0  0  0  0  0  0  0  0  0  0  0
    3.0000   -5.1962    0.0000 C   0  0  0  0  0  0  0  0  0  0  0  0
    3.7500   -3.8971    0.0000 O   0  0  0  0  0  0  0  0  0  0  0  0
    3.7500   -6.4952    0.0000 C   0  0  0  0  0  0  0  0  0  0  0  0
    5.2500   -6.4952    0.0000 C   0  0  0  0  0  0  0  0  0  0  0  0
    6.0000   -7.7942    0.0000 C   0  0  0  0  0  0  0  0  0  0  0  0
    7.5000   -7.7942    0.0000 C   0  0  0  0  0  0  0  0  0  0  0  0
    8.2500   -6.4952    0.0000 C   0  0  0  0  0  0  0  0  0  0  0  0
    7.5000   -5.1962    0.0000 C   0  0  0  0  0  0  0  0  0  0  0  0
    6.0000   -5.1962    0.0000 C   0  0  0  0  0  0  0  0  0  0  0  0
    3.0000   -7.7942    0.0000 N   0  0  0  0  0  0  0  0  0  0  0  0
    1.5000   -7.7942    0.0000 C   0  0  0  0  0  0  0  0  0  0  0  0
    0.7500   -9.0933    0.0000 C   0  0  0  0  0  0  0  0  0  0  0  0
    1.5000  -10.3923    0.0000 N   0  0  0  0  0  0  0  0  0  0  0  0
    0.7500  -11.6913    0.0000 C   0  0  0  0  0  0  0  0  0  0  0  0
   -0.7500  -11.6913    0.0000 C   0  0  0  0  0  0  0  0  0  0  0  0
   -2.0490  -12.4413    0.0000 C   0  0  0  0  0  0  0  0  0  0  0  0
   -2.0490  -10.9413    0.0000 C   0  0  0  0  0  0  0  0  0  0  0  0
    3.0000  -10.3923    0.0000 C   0  0  0  0  0  0  0  0  0  0  0  0
    3.7500   -9.0933    0.0000 C   0  0  0  0  0  0  0  0  0  0  0  0
  1  2  1  0
  2  3  1  0
  3  4  1  0
  4  5  1  0
  5  6  2  0
  6  7  1  0
  7  8  1  0
  8  9  1  0
  8 10  1  0
  8 11  1  0
  7 12  2  0
 12 13  1  0
 13 14  1  0
 14 15  1  0
 14 16  1  0
 14 17  1  0
 13 18  2  0
  2 19  1  0
 19 20  2  0
 19 21  1  0
 21 22  1  0
 22 23  2  0
 23 24  1  0
 24 25  2  0
 25 26  1  0
 26 27  2  0
 21 28  1  0
 28 29  1  0
 29 30  1  0
 30 31  1  0
 31 32  1  0
 32 33  1  0
 33 34  1  0
 34 35  1  0
 31 36  1  0
 36 37  1  0
 18  5  1  0
 27 22  1  0
 37 28  1  0
 35 33  1  0
M  END
>  <Synonyms>  (36) 
BIIF 1149|BIIF 1149 BS|BIIF 1149 CL|BIIF-1149 BS|FIGOPITANT

>  <Research Codes>  (36) 
BIIF-1149 BS|BIIF-1149-BS|BIIF-1149-CL

>  <Phase>  (36) 
1

>  <Applicants>  (36) 
nan

>  <USAN Stem>  (36) 
'-tant'

>  <USAN Year>  (36) 
nan

>  <USAN Stem Definition>  (36) 
tachykinin (neurokinin) receptor antagonists: NK1 receptor antagonists

>  <USAN Stem Substem>  (36) 
'-tant(-tant (-pitant))'

>  <First Approval>  (36) 
nan

>  <ATC Codes>  (36) 
nan

>  <Level 4 ATC Codes>  (36) 
nan

>  <Level 3 ATC Codes>  (36) 
nan

>  <Level 2 ATC Codes>  (36) 
nan

>  <Level 1 ATC Codes>  (36) 
nan

>  <Indication Class>  (36) 
nan

>  <Patent>  (36) 
nan

>  <Drug Type>  (36) 
1:Synthetic Small Molecule

>  <Passes Rule of Five>  (36) 
False

>  <First In Class>  (36) 
False

>  <Chirality>  (36) 
Single Stereoisomer

>  <Prodrug>  (36) 
False

>  <Oral>  (36) 
False

>  <Parenteral>  (36) 
False

>  <Topical>  (36) 
False

>  <Black Box>  (36) 
False

>  <Availability Type>  (36) 
Unknown

>  <Withdrawn Year>  (36) 
nan

>  <Withdrawn Reason>  (36) 
nan

>  <Withdrawn Country>  (36) 
nan

>  <Withdrawn Class>  (36) 
nan

>  <SMILES>  (36) 
CN(CCc1cc(C(F)(F)F)cc(C(F)(F)F)c1)C(=O)[C@H](c1ccccc1)N1CCN(CC2CC2)CC1

>  <InChi Key>  (36) 
HUTHJVYJUPXHDF-UHFFFAOYSA-N

$$$$
CHEMBL2105829
     RDKit          2D

 44 49  0  0  0  0  0  0  0  0999 V2000
   -4.5577    0.2855    0.0000 C   0  0  0  0  0  0  0  0  0  0  0  0
   -5.9843   -0.1781    0.0000 C   0  0  0  0  0  0  0  0  0  0  0  0
   -6.2961   -1.6453    0.0000 O   0  0  0  0  0  0  0  0  0  0  0  0
   -7.7227   -2.1088    0.0000 C   0  0  0  0  0  0  0  0  0  0  0  0
   -8.3684   -1.3660    0.0000 O   0  0  0  0  0  0  0  0  0  0  0  0
   -8.0346   -3.5760    0.0000 C   0  0  0  0  0  0  0  0  0  0  0  0
   -6.9199   -4.5797    0.0000 C   0  0  0  0  0  0  0  0  0  0  0  0
   -5.4933   -4.1162    0.0000 C   0  0  0  0  0  0  0  0  0  0  0  0
   -4.3786   -5.1199    0.0000 C   0  0  0  0  0  0  0  0  0  0  0  0
   -2.9520   -4.6564    0.0000 C   0  0  0  0  0  0  0  0  0  0  0  0
   -2.6401   -3.1891    0.0000 C   0  0  0  0  0  0  0  0  0  0  0  0
   -1.2135   -2.7256    0.0000 N   0  0  0  0  0  0  0  0  0  0  0  0
   -0.0000   -3.6073    0.0000 C   0  0  0  0  0  0  0  0  0  0  0  0
    0.0000   -5.1073    0.0000 C   0  0  0  0  0  0  0  0  0  0  0  0
    1.2135   -2.7256    0.0000 N   0  0  0  0  0  0  0  0  0  0  0  0
    0.7500   -1.2990    0.0000 C   0  0  0  0  0  0  0  0  0  0  0  0
    1.5000    0.0000    0.0000 C   0  0  0  0  0  0  0  0  0  0  0  0
    0.7500    1.2990    0.0000 N   0  0  0  0  0  0  0  0  0  0  0  0
   -0.7500    1.2990    0.0000 C   0  0  0  0  0  0  0  0  0  0  0  0
   -1.5000    0.0000    0.0000 C   0  0  0  0  0  0  0  0  0  0  0  0
   -0.7500   -1.2990    0.0000 C   0  0  0  0  0  0  0  0  0  0  0  0
   -3.7548   -2.1855    0.0000 C   0  0  0  0  0  0  0  0  0  0  0  0
   -5.1814   -2.6490    0.0000 C   0  0  0  0  0  0  0  0  0  0  0  0
   -7.2317   -6.0469    0.0000 N   0  0  0  0  0  0  0  0  0  0  0  0
   -8.6583   -6.5105    0.0000 C   0  0  0  0  0  0  0  0  0  0  0  0
   -8.9702   -7.9777    0.0000 C   0  0  0  0  0  0  0  0  0  0  0  0
   -9.7730   -5.5068    0.0000 C   0  0  0  0  0  0  0  0  0  0  0  0
  -11.1996   -5.9703    0.0000 C   0  0  0  0  0  0  0  0  0  0  0  0
  -11.5115   -7.4375    0.0000 O   0  0  0  0  0  0  0  0  0  0  0  0
  -12.3143   -4.9666    0.0000 N   0  0  0  0  0  0  0  0  0  0  0  0
  -13.7409   -5.4301    0.0000 C   0  0  0  0  0  0  0  0  0  0  0  0
  -14.8556   -4.4264    0.0000 C   0  0  0  0  0  0  0  0  0  0  0  0
  -16.2822   -4.8900    0.0000 C   0  0  0  0  0  0  0  0  0  0  0  0
  -16.5941   -6.3572    0.0000 C   0  0  0  0  0  0  0  0  0  0  0  0
  -15.4794   -7.3609    0.0000 C   0  0  0  0  0  0  0  0  0  0  0  0
  -14.0528   -6.8974    0.0000 N   0  0  0  0  0  0  0  0  0  0  0  0
   -9.4612   -4.0396    0.0000 C   0  0  0  0  0  0  0  0  0  0  0  0
  -10.5759   -3.0359    0.0000 C   0  0  0  0  0  0  0  0  0  0  0  0
  -12.0025   -3.4994    0.0000 C   0  0  0  0  0  0  0  0  0  0  0  0
  -13.1172   -2.4957    0.0000 C   0  0  0  0  0  0  0  0  0  0  0  0
  -12.8053   -1.0285    0.0000 C   0  0  0  0  0  0  0  0  0  0  0  0
  -11.3787   -0.5649    0.0000 C   0  0  0  0  0  0  0  0  0  0  0  0
  -10.2640   -1.5686    0.0000 C   0  0  0  0  0  0  0  0  0  0  0  0
   -9.3721   -1.1527    0.0000 Cl  0  0  0  0  0  0  0  0  0  0  0  0
  1  2  1  0
  2  3  1  0
  3  4  1  0
  4  5  2  0
  4  6  1  0
  6  7  2  0
  7  8  1  0
  8  9  2  0
  9 10  1  0
 10 11  2  0
 11 12  1  0
 12 13  1  0
 13 14  1  0
 13 15  2  0
 15 16  1  0
 16 17  2  0
 17 18  1  0
 18 19  2  0
 19 20  1  0
 20 21  2  0
 11 22  1  0
 22 23  2  0
  7 24  1  0
 24 25  2  0
 25 26  1  0
 25 27  1  0
 27 28  1  0
 28 29  2  0
 28 30  1  0
 30 31  2  3
 31 32  1  0
 32 33  2  0
 33 34  1  0
 34 35  2  0
 35 36  1  0
 27 37  1  0
 37 38  1  1
 38 39  2  0
 39 40  1  0
 40 41  2  0
 41 42  1  0
 42 43  2  0
 43 44  1  0
 37  6  1  0
 43 38  1  0
 23  8  1  0
 36 31  1  0
 21 12  1  0
 21 16  1  0
M  END
>  <Synonyms>  (37) 
MODIPAFANT|UK-80067

>  <Research Codes>  (37) 
UK-80067

>  <Phase>  (37) 
1

>  <Applicants>  (37) 
nan

>  <USAN Stem>  (37) 
'-pafant'

>  <USAN Year>  (37) 
nan

>  <USAN Stem Definition>  (37) 
platelet-activating factor antagonists

>  <USAN Stem Substem>  (37) 
'-pafant(-pafant)'

>  <First Approval>  (37) 
nan

>  <ATC Codes>  (37) 
nan

>  <Level 4 ATC Codes>  (37) 
nan

>  <Level 3 ATC Codes>  (37) 
nan

>  <Level 2 ATC Codes>  (37) 
nan

>  <Level 1 ATC Codes>  (37) 
nan

>  <Indication Class>  (37) 
nan

>  <Patent>  (37) 
nan

>  <Drug Type>  (37) 
1:Synthetic Small Molecule

>  <Passes Rule of Five>  (37) 
False

>  <First In Class>  (37) 
False

>  <Chirality>  (37) 
Single Stereoisomer

>  <Prodrug>  (37) 
False

>  <Oral>  (37) 
False

>  <Parenteral>  (37) 
False

>  <Topical>  (37) 
False

>  <Black Box>  (37) 
False

>  <Availability Type>  (37) 
Unknown

>  <Withdrawn Year>  (37) 
nan

>  <Withdrawn Reason>  (37) 
nan

>  <Withdrawn Country>  (37) 
nan

>  <Withdrawn Class>  (37) 
nan

>  <SMILES>  (37) 
CCOC(=O)C1=C(c2ccc(-n3c(C)nc4cnccc43)cc2)NC(C)=C(C(=O)Nc2ccccn2)[C@H]1c1ccccc1Cl

>  <InChi Key>  (37) 
RCODMGPJQVRMFZ-BDCODIICSA-N

$$$$
CHEMBL2105666
     RDKit          2D

 66 72  0  0  0  0  0  0  0  0999 V2000
   -3.7500   -1.2990    0.0000 C   0  0  0  0  0  0  0  0  0  0  0  0
   -3.0000   -2.5981    0.0000 C   0  0  0  0  0  0  0  0  0  0  0  0
   -1.5000   -2.5981    0.0000 C   0  0  0  0  0  0  0  0  0  0  0  0
   -0.7500   -3.8971    0.0000 C   0  0  0  0  0  0  0  0  0  0  0  0
    0.7500   -3.8971    0.0000 C   0  0  0  0  0  0  0  0  0  0  0  0
    1.5000   -2.5981    0.0000 N   0  0  0  0  0  0  0  0  0  0  0  0
    0.7500   -1.2990    0.0000 C   0  0  0  0  0  0  0  0  0  0  0  0
    1.5000    0.0000    0.0000 C   0  0  0  0  0  0  0  0  0  0  0  0
    0.7500    1.2990    0.0000 C   0  0  0  0  0  0  0  0  0  0  0  0
   -0.7500    1.2990    0.0000 C   0  0  0  0  0  0  0  0  0  0  0  0
   -1.5000    2.5981    0.0000 O   0  0  0  0  0  0  0  0  0  0  0  0
   -0.7500    3.8971    0.0000 C   0  0  0  0  0  0  0  0  0  0  0  0
    0.7500    3.8971    0.0000 O   0  0  0  0  0  0  0  0  0  0  0  0
   -1.5000    5.1962    0.0000 C   0  0  0  0  0  0  0  0  0  0  0  0
   -0.7500    6.4952    0.0000 C   0  0  0  0  0  0  0  0  0  0  0  0
   -1.5000    7.7942    0.0000 C   0  0  0  0  0  0  0  0  0  0  0  0
   -3.0000    7.7942    0.0000 O   0  0  0  0  0  0  0  0  0  0  0  0
   -0.7500    9.0933    0.0000 O   0  0  0  0  0  0  0  0  0  0  0  0
   -1.5000   10.3923    0.0000 C   0  0  0  0  0  0  0  0  0  0  0  0
   -3.0000   10.3923    0.0000 C   0  0  0  0  0  0  0  0  0  0  0  0
   -3.7500    9.0933    0.0000 C   0  0  0  0  0  0  0  0  0  0  0  0
   -3.7500   11.6913    0.0000 C   0  0  0  0  0  0  0  0  0  0  0  0
   -5.2500   11.6913    0.0000 C   0  0  0  0  0  0  0  0  0  0  0  0
   -3.0000   12.9904    0.0000 C   0  0  0  0  0  0  0  0  0  0  0  0
   -1.5000   12.9904    0.0000 C   0  0  0  0  0  0  0  0  0  0  0  0
   -0.7500   11.6913    0.0000 C   0  0  0  0  0  0  0  0  0  0  0  0
    0.7500   11.6913    0.0000 C   0  0  0  0  0  0  0  0  0  0  0  0
   -0.7500   14.2894    0.0000 C   0  0  0  0  0  0  0  0  0  0  0  0
   -1.5000   15.5885    0.0000 C   0  0  0  0  0  0  0  0  0  0  0  0
   -3.0000   15.5885    0.0000 C   0  0  0  0  0  0  0  0  0  0  0  0
   -4.4095   16.1015    0.0000 C   0  0  0  0  0  0  0  0  0  0  0  0
   -2.7395   17.0657    0.0000 C   0  0  0  0  0  0  0  0  0  0  0  0
   -1.3300   17.5787    0.0000 C   0  0  0  0  0  0  0  0  0  0  0  0
   -1.0695   19.0559    0.0000 C   0  0  0  0  0  0  0  0  0  0  0  0
    0.3400   19.5689    0.0000 C   0  0  0  0  0  0  0  0  0  0  0  0
    0.6005   21.0462    0.0000 C   0  0  0  0  0  0  0  0  0  0  0  0
    1.4891   18.6048    0.0000 C   0  0  0  0  0  0  0  0  0  0  0  0
    2.8986   19.1178    0.0000 C   0  0  0  0  0  0  0  0  0  0  0  0
    4.0477   18.1536    0.0000 C   0  0  0  0  0  0  0  0  0  0  0  0
    5.4572   18.6666    0.0000 C   0  0  0  0  0  0  0  0  0  0  0  0
    6.6063   17.7025    0.0000 C   0  0  0  0  0  0  0  0  0  0  0  0
    5.7177   20.1439    0.0000 C   0  0  0  0  0  0  0  0  0  0  0  0
    7.1272   20.6569    0.0000 C   0  0  0  0  0  0  0  0  0  0  0  0
    7.3877   22.1341    0.0000 C   0  0  0  0  0  0  0  0  0  0  0  0
    8.7973   22.6471    0.0000 C   0  0  0  0  0  0  0  0  0  0  0  0
    9.0577   24.1243    0.0000 C   0  0  0  0  0  0  0  0  0  0  0  0
    9.9463   21.6829    0.0000 C   0  0  0  0  0  0  0  0  0  0  0  0
   -3.7500   14.2894    0.0000 O   0  0  0  0  0  0  0  0  0  0  0  0
   -1.5000    0.0000    0.0000 C   0  0  0  0  0  0  0  0  0  0  0  0
   -0.7500   -1.2990    0.0000 C   0  0  0  0  0  0  0  0  0  0  0  0
    1.2135   -5.3237    0.0000 C   0  0  0  0  0  0  0  0  0  0  0  0
    2.5838   -5.9338    0.0000 C   0  0  0  0  0  0  0  0  0  0  0  0
    2.7406   -7.4256    0.0000 C   0  0  0  0  0  0  0  0  0  0  0  0
    1.5271   -8.3073    0.0000 C   0  0  0  0  0  0  0  0  0  0  0  0
    0.1568   -7.6972    0.0000 C   0  0  0  0  0  0  0  0  0  0  0  0
   -1.0567   -8.5788    0.0000 O   0  0  0  0  0  0  0  0  0  0  0  0
    0.0000   -6.2054    0.0000 N   0  0  0  0  0  0  0  0  0  0  0  0
   -1.2135   -5.3237    0.0000 C   0  0  0  0  0  0  0  0  0  0  0  0
    1.6839   -9.7990    0.0000 C   0  0  0  0  0  0  0  0  0  0  0  0
    3.0542  -10.4092    0.0000 O   0  0  0  0  0  0  0  0  0  0  0  0
    4.2677   -9.5275    0.0000 C   0  0  0  0  0  0  0  0  0  0  0  0
    5.6381  -10.1376    0.0000 O   0  0  0  0  0  0  0  0  0  0  0  0
    4.1110   -8.0357    0.0000 C   0  0  0  0  0  0  0  0  0  0  0  0
    5.6073   -8.1403    0.0000 O   0  0  0  0  0  0  0  0  0  0  0  0
    4.4738   -6.5802    0.0000 C   0  0  0  0  0  0  0  0  0  0  0  0
    5.9157   -6.1668    0.0000 C   0  0  0  0  0  0  0  0  0  0  0  0
  1  2  1  0
  2  3  1  0
  3  4  2  0
  4  5  1  0
  5  6  2  0
  6  7  1  0
  7  8  2  0
  8  9  1  0
  9 10  2  0
 10 11  1  0
 11 12  1  0
 12 13  2  0
 12 14  1  0
 14 15  1  0
 15 16  1  0
 16 17  2  0
 16 18  1  0
 18 19  1  0
 19 20  2  0
 20 21  1  0
 20 22  1  0
 22 23  1  0
 22 24  2  0
 24 25  1  0
 25 26  2  0
 26 27  1  0
 25 28  1  0
 28 29  1  0
 29 30  1  0
 30 31  1  1
 30 32  1  0
 32 33  1  0
 33 34  1  0
 34 35  1  0
 35 36  1  6
 35 37  1  0
 37 38  1  0
 38 39  1  0
 39 40  1  0
 40 41  1  1
 40 42  1  0
 42 43  1  0
 43 44  1  0
 44 45  1  0
 45 46  1  0
 45 47  1  0
 30 48  1  0
 10 49  1  0
 49 50  2  0
  5 51  1  0
 51 52  2  0
 52 53  1  0
 53 54  2  0
 54 55  1  0
 55 56  2  0
 55 57  1  0
 57 58  1  0
 54 59  1  0
 59 60  1  0
 60 61  1  0
 61 62  2  0
 61 63  1  0
 63 64  1  6
 63 65  1  0
 65 66  1  0
 50  3  1  0
 57 51  1  0
 58  4  1  0
 50  7  1  0
 63 53  1  0
 26 19  1  0
 48 24  1  0
M  END
>  <Synonyms>  (38) 
SN-2310|SN2310|TENIFATECAN

>  <Research Codes>  (38) 
SN-2310|SN2310

>  <Phase>  (38) 
1

>  <Applicants>  (38) 
nan

>  <USAN Stem>  (38) 
'-tecan'

>  <USAN Year>  (38) 
2009.0

>  <USAN Stem Definition>  (38) 
antineoplastics (camptothecine derivatives)

>  <USAN Stem Substem>  (38) 
'-tecan(-tecan)'

>  <First Approval>  (38) 
nan

>  <ATC Codes>  (38) 
nan

>  <Level 4 ATC Codes>  (38) 
nan

>  <Level 3 ATC Codes>  (38) 
nan

>  <Level 2 ATC Codes>  (38) 
nan

>  <Level 1 ATC Codes>  (38) 
nan

>  <Indication Class>  (38) 
nan

>  <Patent>  (38) 
nan

>  <Drug Type>  (38) 
7:Natural Product-derived

>  <Passes Rule of Five>  (38) 
False

>  <First In Class>  (38) 
False

>  <Chirality>  (38) 
Single Stereoisomer

>  <Prodrug>  (38) 
False

>  <Oral>  (38) 
False

>  <Parenteral>  (38) 
False

>  <Topical>  (38) 
False

>  <Black Box>  (38) 
False

>  <Availability Type>  (38) 
Unknown

>  <Withdrawn Year>  (38) 
nan

>  <Withdrawn Reason>  (38) 
nan

>  <Withdrawn Country>  (38) 
nan

>  <Withdrawn Class>  (38) 
nan

>  <SMILES>  (38) 
CCc1c2c(nc3ccc(OC(=O)CCC(=O)Oc4c(C)c(C)c5c(c4C)CC[C@@](C)(CCC[C@H](C)CCC[C@H](C)CCCC(C)C)O5)cc13)-c1cc3c(c(=O)n1C2)COC(=O)[C@]3(O)CC

>  <InChi Key>  (38) 
KRHZRBUSQSYTTP-PTXGIJCNSA-N

$$$$
CHEMBL3928407
     RDKit          2D

 34 38  0  0  0  0  0  0  0  0999 V2000
    6.7500   -3.8971    0.0000 N   0  0  0  0  0  0  0  0  0  0  0  0
    6.0000   -5.1962    0.0000 C   0  0  0  0  0  0  0  0  0  0  0  0
    5.2500   -6.4952    0.0000 C   0  0  0  0  0  0  0  0  0  0  0  0
    6.0000   -7.7942    0.0000 C   0  0  0  0  0  0  0  0  0  0  0  0
    7.5000   -7.7942    0.0000 N   0  0  0  0  0  0  0  0  0  0  0  0
    5.2500   -9.0933    0.0000 N   0  0  0  0  0  0  0  0  0  0  0  0
    3.7500   -9.0933    0.0000 C   0  0  0  0  0  0  0  0  0  0  0  0
    3.0000  -10.3923    0.0000 N   0  0  0  0  0  0  0  0  0  0  0  0
    3.0000   -7.7942    0.0000 N   0  0  0  0  0  0  0  0  0  0  0  0
    3.7500   -6.4952    0.0000 C   0  0  0  0  0  0  0  0  0  0  0  0
    3.0000   -5.1962    0.0000 N   0  0  0  0  0  0  0  0  0  0  0  0
    1.5000   -5.1962    0.0000 C   0  0  0  0  0  0  0  0  0  0  0  0
    0.7500   -3.8971    0.0000 C   0  0  0  0  0  0  0  0  0  0  0  0
    1.5000   -2.5981    0.0000 N   0  0  0  0  0  0  0  0  0  0  0  0
    0.7500   -1.2990    0.0000 C   0  0  0  0  0  0  0  0  0  0  0  0
    1.5000    0.0000    0.0000 C   0  0  0  0  0  0  0  0  0  0  0  0
    3.0000    0.0000    0.0000 F   0  0  0  0  0  0  0  0  0  0  0  0
    0.7500    1.2990    0.0000 C   0  0  0  0  0  0  0  0  0  0  0  0
   -0.7500    1.2990    0.0000 C   0  0  0  0  0  0  0  0  0  0  0  0
   -1.5000    0.0000    0.0000 C   0  0  0  0  0  0  0  0  0  0  0  0
   -3.0000    0.0000    0.0000 Cl  0  0  0  0  0  0  0  0  0  0  0  0
   -0.7500   -1.2990    0.0000 C   0  0  0  0  0  0  0  0  0  0  0  0
   -1.5000   -2.5981    0.0000 C   0  0  0  0  0  0  0  0  0  0  0  0
   -3.0000   -2.5981    0.0000 O   0  0  0  0  0  0  0  0  0  0  0  0
   -0.7500   -3.8971    0.0000 N   0  0  0  0  0  0  0  0  0  0  0  0
   -1.5000   -5.1962    0.0000 C   0  0  0  0  0  0  0  0  0  0  0  0
   -3.0000   -5.1962    0.0000 C   0  0  0  0  0  0  0  0  0  0  0  0
   -3.7500   -6.4952    0.0000 C   0  0  0  0  0  0  0  0  0  0  0  0
   -3.0000   -7.7942    0.0000 C   0  0  0  0  0  0  0  0  0  0  0  0
   -1.5000   -7.7942    0.0000 N   0  0  0  0  0  0  0  0  0  0  0  0
   -0.7500   -6.4952    0.0000 C   0  0  0  0  0  0  0  0  0  0  0  0
    0.7500   -6.4952    0.0000 C   0  0  0  0  0  0  0  0  0  0  0  0
    0.7500   -7.9952    0.0000 C   0  0  0  0  0  0  0  0  0  0  0  0
   -0.5490   -7.2452    0.0000 C   0  0  0  0  0  0  0  0  0  0  0  0
  1  2  3  0
  2  3  1  0
  3  4  2  0
  4  5  1  0
  4  6  1  0
  6  7  1  0
  7  8  2  0
  7  9  1  0
  9 10  1  0
 10 11  2  3
 11 12  1  0
 12 13  1  0
 13 14  2  0
 14 15  1  0
 15 16  2  0
 16 17  1  0
 16 18  1  0
 18 19  2  0
 19 20  1  0
 20 21  1  0
 20 22  2  0
 22 23  1  0
 23 24  2  0
 23 25  1  0
 25 26  1  0
 26 27  2  0
 27 28  1  0
 28 29  2  0
 29 30  1  0
 30 31  2  0
 12 32  1  0
 32 33  1  0
 33 34  1  0
 10  3  1  0
 25 13  1  0
 31 26  1  0
 34 32  1  0
 22 15  1  0
M  END
>  <Synonyms>  (39) 
GS 9901|GS-9901

>  <Research Codes>  (39) 
nan

>  <Phase>  (39) 
1

>  <Applicants>  (39) 
nan

>  <USAN Stem>  (39) 
nan

>  <USAN Year>  (39) 
nan

>  <USAN Stem Definition>  (39) 
nan

>  <USAN Stem Substem>  (39) 
nan

>  <First Approval>  (39) 
nan

>  <ATC Codes>  (39) 
nan

>  <Level 4 ATC Codes>  (39) 
nan

>  <Level 3 ATC Codes>  (39) 
nan

>  <Level 2 ATC Codes>  (39) 
nan

>  <Level 1 ATC Codes>  (39) 
nan

>  <Indication Class>  (39) 
nan

>  <Patent>  (39) 
nan

>  <Drug Type>  (39) 
1:Synthetic Small Molecule

>  <Passes Rule of Five>  (39) 
True

>  <First In Class>  (39) 
False

>  <Chirality>  (39) 
Single Stereoisomer

>  <Prodrug>  (39) 
False

>  <Oral>  (39) 
False

>  <Parenteral>  (39) 
False

>  <Topical>  (39) 
False

>  <Black Box>  (39) 
False

>  <Availability Type>  (39) 
Unknown

>  <Withdrawn Year>  (39) 
nan

>  <Withdrawn Reason>  (39) 
nan

>  <Withdrawn Country>  (39) 
nan

>  <Withdrawn Class>  (39) 
nan

>  <SMILES>  (39) 
N#Cc1c(N)nc(N)nc1N[C@H](c1nc2c(F)ccc(Cl)c2c(=O)n1-c1cccnc1)C1CC1

>  <InChi Key>  (39) 
XDSXYMOZKDUASY-UHFFFAOYSA-N

$$$$
CHEMBL3982690
     RDKit          2D

 33 38  0  0  0  0  0  0  0  0999 V2000
   -1.4940    6.4664    0.0000 C   0  0  0  0  0  0  0  0  0  0  0  0
   -2.7931    5.7164    0.0000 C   0  0  0  0  0  0  0  0  0  0  0  0
   -4.1634    6.3265    0.0000 N   0  0  0  0  0  0  0  0  0  0  0  0
   -5.1671    5.2118    0.0000 O   0  0  0  0  0  0  0  0  0  0  0  0
   -4.4171    3.9127    0.0000 C   0  0  0  0  0  0  0  0  0  0  0  0
   -5.0272    2.5424    0.0000 C   0  0  0  0  0  0  0  0  0  0  0  0
   -2.9499    4.2246    0.0000 C   0  0  0  0  0  0  0  0  0  0  0  0
   -1.8351    3.2209    0.0000 C   0  0  0  0  0  0  0  0  0  0  0  0
   -0.4086    3.6844    0.0000 C   0  0  0  0  0  0  0  0  0  0  0  0
    0.7062    2.6807    0.0000 C   0  0  0  0  0  0  0  0  0  0  0  0
    2.1328    3.1443    0.0000 C   0  0  0  0  0  0  0  0  0  0  0  0
    2.5963    1.7177    0.0000 O   0  0  0  0  0  0  0  0  0  0  0  0
    3.5593    3.6078    0.0000 C   0  0  0  0  0  0  0  0  0  0  0  0
    4.6741    2.6041    0.0000 C   0  0  0  0  0  0  0  0  0  0  0  0
    6.1006    3.0676    0.0000 C   0  0  0  0  0  0  0  0  0  0  0  0
    6.4125    4.5348    0.0000 C   0  0  0  0  0  0  0  0  0  0  0  0
    5.2978    5.5385    0.0000 C   0  0  0  0  0  0  0  0  0  0  0  0
    3.8712    5.0750    0.0000 N   0  0  0  0  0  0  0  0  0  0  0  0
    1.6692    4.5709    0.0000 C   0  0  0  0  0  0  0  0  0  0  0  0
    2.6729    5.6856    0.0000 C   0  0  0  0  0  0  0  0  0  0  0  0
    2.2094    7.1122    0.0000 C   0  0  0  0  0  0  0  0  0  0  0  0
    0.7422    7.4240    0.0000 C   0  0  0  0  0  0  0  0  0  0  0  0
   -0.2615    6.3093    0.0000 C   0  0  0  0  0  0  0  0  0  0  0  0
    0.2020    4.8827    0.0000 N   0  0  0  0  0  0  0  0  0  0  0  0
    0.3943    1.2135    0.0000 C   0  0  0  0  0  0  0  0  0  0  0  0
    1.2760    0.0000    0.0000 N   0  0  0  0  0  0  0  0  0  0  0  0
    0.3943   -1.2135    0.0000 C   0  0  0  0  0  0  0  0  0  0  0  0
    0.8578   -2.6401    0.0000 C   0  0  0  0  0  0  0  0  0  0  0  0
    1.9725   -3.6438    0.0000 C   0  0  0  0  0  0  0  0  0  0  0  0
    0.5460   -4.1073    0.0000 C   0  0  0  0  0  0  0  0  0  0  0  0
   -1.0323   -0.7500    0.0000 N   0  0  0  0  0  0  0  0  0  0  0  0
   -1.0323    0.7500    0.0000 C   0  0  0  0  0  0  0  0  0  0  0  0
   -2.1470    1.7537    0.0000 C   0  0  0  0  0  0  0  0  0  0  0  0
  1  2  1  0
  2  3  2  0
  3  4  1  0
  4  5  1  0
  5  6  1  0
  5  7  2  0
  7  8  1  0
  8  9  2  0
  9 10  1  0
 10 11  1  0
 11 12  1  0
 11 13  1  0
 13 14  2  0
 14 15  1  0
 15 16  2  0
 16 17  1  0
 17 18  2  0
 11 19  1  0
 19 20  2  0
 20 21  1  0
 21 22  2  0
 22 23  1  0
 23 24  2  0
 10 25  2  0
 25 26  1  0
 26 27  1  0
 27 28  1  0
 28 29  1  0
 29 30  1  0
 27 31  2  0
 31 32  1  0
 32 33  2  0
  7  2  1  0
 33  8  1  0
 18 13  1  0
 24 19  1  0
 32 25  1  0
 30 28  1  0
M  END
>  <Synonyms>  (40) 
ALOBRESIB|GS-5829

>  <Research Codes>  (40) 
nan

>  <Phase>  (40) 
1

>  <Applicants>  (40) 
nan

>  <USAN Stem>  (40) 
'-bresib'

>  <USAN Year>  (40) 
nan

>  <USAN Stem Definition>  (40) 
bromodomain and extra terminal motif (BET) inhibitors

>  <USAN Stem Substem>  (40) 
'-bresib(-bresib)'

>  <First Approval>  (40) 
nan

>  <ATC Codes>  (40) 
nan

>  <Level 4 ATC Codes>  (40) 
nan

>  <Level 3 ATC Codes>  (40) 
nan

>  <Level 2 ATC Codes>  (40) 
nan

>  <Level 1 ATC Codes>  (40) 
nan

>  <Indication Class>  (40) 
nan

>  <Patent>  (40) 
nan

>  <Drug Type>  (40) 
1:Synthetic Small Molecule

>  <Passes Rule of Five>  (40) 
True

>  <First In Class>  (40) 
False

>  <Chirality>  (40) 
Achiral Molecule

>  <Prodrug>  (40) 
False

>  <Oral>  (40) 
False

>  <Parenteral>  (40) 
False

>  <Topical>  (40) 
False

>  <Black Box>  (40) 
False

>  <Availability Type>  (40) 
Unknown

>  <Withdrawn Year>  (40) 
nan

>  <Withdrawn Reason>  (40) 
nan

>  <Withdrawn Country>  (40) 
nan

>  <Withdrawn Class>  (40) 
nan

>  <SMILES>  (40) 
Cc1noc(C)c1-c1cc(C(O)(c2ccccn2)c2ccccn2)c2nc(C3CC3)[nH]c2c1

>  <InChi Key>  (40) 
CMSUJGUHYXQSOK-UHFFFAOYSA-N

$$$$
CHEMBL4209157
     RDKit          2D

 35 41  0  0  0  0  0  0  0  0999 V2000
    3.0000    0.0000    0.0000 O   0  0  0  0  0  0  0  0  0  0  0  0
    1.5000    0.0000    0.0000 C   0  0  0  0  0  0  0  0  0  0  0  0
    0.7500   -1.2990    0.0000 C   0  0  0  0  0  0  0  0  0  0  0  0
   -0.7500   -1.2990    0.0000 C   0  0  0  0  0  0  0  0  0  0  0  0
   -1.5000    0.0000    0.0000 C   0  0  0  0  0  0  0  0  0  0  0  0
   -3.0000    0.0000    0.0000 C   0  0  0  0  0  0  0  0  0  0  0  0
   -3.7500   -1.2990    0.0000 O   0  0  0  0  0  0  0  0  0  0  0  0
   -5.2500   -1.2990    0.0000 C   0  0  0  0  0  0  0  0  0  0  0  0
   -6.0000    0.0000    0.0000 C   0  0  0  0  0  0  0  0  0  0  0  0
   -7.5000    0.0000    0.0000 C   0  0  0  0  0  0  0  0  0  0  0  0
   -8.2500   -1.2990    0.0000 C   0  0  0  0  0  0  0  0  0  0  0  0
   -7.5000   -2.5981    0.0000 C   0  0  0  0  0  0  0  0  0  0  0  0
   -6.0000   -2.5981    0.0000 C   0  0  0  0  0  0  0  0  0  0  0  0
   -8.5037   -3.7128    0.0000 C   0  0  0  0  0  0  0  0  0  0  0  0
   -9.8740   -3.1027    0.0000 C   0  0  0  0  0  0  0  0  0  0  0  0
   -9.7172   -1.6109    0.0000 O   0  0  0  0  0  0  0  0  0  0  0  0
   -9.7172   -4.5945    0.0000 C   0  0  0  0  0  0  0  0  0  0  0  0
  -10.3273   -5.9648    0.0000 C   0  0  0  0  0  0  0  0  0  0  0  0
  -11.7945   -6.2767    0.0000 N   0  0  0  0  0  0  0  0  0  0  0  0
  -11.9513   -7.7684    0.0000 C   0  0  0  0  0  0  0  0  0  0  0  0
  -13.1649   -8.6501    0.0000 C   0  0  0  0  0  0  0  0  0  0  0  0
  -13.0081  -10.1419    0.0000 C   0  0  0  0  0  0  0  0  0  0  0  0
  -14.2216  -11.0236    0.0000 C   0  0  0  0  0  0  0  0  0  0  0  0
  -15.4351  -11.9053    0.0000 F   0  0  0  0  0  0  0  0  0  0  0  0
  -15.1033   -9.8101    0.0000 F   0  0  0  0  0  0  0  0  0  0  0  0
  -13.3399  -12.2371    0.0000 F   0  0  0  0  0  0  0  0  0  0  0  0
  -11.6378  -10.7520    0.0000 C   0  0  0  0  0  0  0  0  0  0  0  0
  -10.4242   -9.8703    0.0000 C   0  0  0  0  0  0  0  0  0  0  0  0
  -10.5810   -8.3785    0.0000 C   0  0  0  0  0  0  0  0  0  0  0  0
   -9.5773   -7.2638    0.0000 N   0  0  0  0  0  0  0  0  0  0  0  0
   -3.7500    1.2990    0.0000 C   0  0  0  0  0  0  0  0  0  0  0  0
   -3.0000    2.5981    0.0000 C   0  0  0  0  0  0  0  0  0  0  0  0
   -1.5000    2.5981    0.0000 N   0  0  0  0  0  0  0  0  0  0  0  0
   -0.7500    1.2990    0.0000 C   0  0  0  0  0  0  0  0  0  0  0  0
    0.7500    1.2990    0.0000 N   0  0  0  0  0  0  0  0  0  0  0  0
  1  2  2  0
  2  3  1  0
  3  4  1  0
  4  5  1  0
  5  6  2  0
  6  7  1  0
  7  8  1  0
  8  9  2  0
  9 10  1  0
 10 11  2  0
 11 12  1  0
 12 13  2  0
 14 12  1  1
 14 15  1  0
 15 16  1  1
 15 17  1  0
 17 18  1  6
 18 19  2  0
 19 20  1  0
 20 21  2  0
 21 22  1  0
 22 23  1  0
 23 24  1  0
 23 25  1  0
 23 26  1  0
 22 27  2  0
 27 28  1  0
 28 29  2  0
 29 30  1  0
  6 31  1  0
 31 32  2  0
 32 33  1  0
 33 34  2  0
 34 35  1  0
 35  2  1  0
 34  5  1  0
 13  8  1  0
 17 14  1  0
 30 18  1  0
 16 11  1  0
 29 20  1  0
M  END
>  <Synonyms>  (41) 
BGB 283|BGB-283|LIFIRAFENIB

>  <Research Codes>  (41) 
BGB-283

>  <Phase>  (41) 
1

>  <Applicants>  (41) 
nan

>  <USAN Stem>  (41) 
'-rafenib'

>  <USAN Year>  (41) 
2018.0

>  <USAN Stem Definition>  (41) 
raf kinase inhibitors

>  <USAN Stem Substem>  (41) 
'-rafenib(-rafenib)'

>  <First Approval>  (41) 
nan

>  <ATC Codes>  (41) 
nan

>  <Level 4 ATC Codes>  (41) 
nan

>  <Level 3 ATC Codes>  (41) 
nan

>  <Level 2 ATC Codes>  (41) 
nan

>  <Level 1 ATC Codes>  (41) 
nan

>  <Indication Class>  (41) 
nan

>  <Patent>  (41) 
nan

>  <Drug Type>  (41) 
1:Synthetic Small Molecule

>  <Passes Rule of Five>  (41) 
False

>  <First In Class>  (41) 
False

>  <Chirality>  (41) 
Single Stereoisomer

>  <Prodrug>  (41) 
False

>  <Oral>  (41) 
False

>  <Parenteral>  (41) 
False

>  <Topical>  (41) 
False

>  <Black Box>  (41) 
False

>  <Availability Type>  (41) 
Unknown

>  <Withdrawn Year>  (41) 
nan

>  <Withdrawn Reason>  (41) 
nan

>  <Withdrawn Country>  (41) 
nan

>  <Withdrawn Class>  (41) 
nan

>  <SMILES>  (41) 
O=C1CCc2c(Oc3ccc4c(c3)[C@@H]3[C@H](O4)[C@H]3c3nc4cc(C(F)(F)F)ccc4[nH]3)ccnc2N1

>  <InChi Key>  (41) 
NGFFVZQXSRKHBM-FKBYEOEOSA-N

$$$$
CHEMBL4212531
     RDKit          2D

 34 37  0  0  0  0  0  0  0  0999 V2000
   -2.1766   -4.6157    0.0000 C   0  0  0  0  0  0  0  0  0  0  0  0
   -2.6401   -3.1891    0.0000 C   0  0  0  0  0  0  0  0  0  0  0  0
   -3.1036   -1.7626    0.0000 C   0  0  0  0  0  0  0  0  0  0  0  0
   -4.0667   -3.6527    0.0000 C   0  0  0  0  0  0  0  0  0  0  0  0
   -5.1814   -2.6490    0.0000 O   0  0  0  0  0  0  0  0  0  0  0  0
   -1.2135   -2.7256    0.0000 N   0  0  0  0  0  0  0  0  0  0  0  0
   -0.0000   -3.6073    0.0000 C   0  0  0  0  0  0  0  0  0  0  0  0
    1.2135   -2.7256    0.0000 C   0  0  0  0  0  0  0  0  0  0  0  0
    2.6401   -3.1891    0.0000 C   0  0  0  0  0  0  0  0  0  0  0  0
    3.7548   -2.1855    0.0000 O   0  0  0  0  0  0  0  0  0  0  0  0
    2.9520   -4.6564    0.0000 C   0  0  0  0  0  0  0  0  0  0  0  0
    1.8373   -5.6601    0.0000 C   0  0  0  0  0  0  0  0  0  0  0  0
    2.1491   -7.1273    0.0000 N   0  0  0  0  0  0  0  0  0  0  0  0
    3.5757   -7.5908    0.0000 C   0  0  0  0  0  0  0  0  0  0  0  0
    4.6904   -6.5871    0.0000 C   0  0  0  0  0  0  0  0  0  0  0  0
    6.1170   -7.0506    0.0000 N   0  0  0  0  0  0  0  0  0  0  0  0
    6.4289   -8.5179    0.0000 C   0  0  0  0  0  0  0  0  0  0  0  0
    5.3142   -9.5216    0.0000 O   0  0  0  0  0  0  0  0  0  0  0  0
    7.8555   -8.9814    0.0000 C   0  0  0  0  0  0  0  0  0  0  0  0
    8.1673  -10.4486    0.0000 C   0  0  0  0  0  0  0  0  0  0  0  0
    7.0526  -11.4523    0.0000 C   0  0  0  0  0  0  0  0  0  0  0  0
    7.3645  -12.9195    0.0000 C   0  0  0  0  0  0  0  0  0  0  0  0
    8.7911  -13.3831    0.0000 C   0  0  0  0  0  0  0  0  0  0  0  0
    9.1029  -14.8503    0.0000 Cl  0  0  0  0  0  0  0  0  0  0  0  0
    9.9058  -12.3794    0.0000 C   0  0  0  0  0  0  0  0  0  0  0  0
    9.5939  -10.9121    0.0000 N   0  0  0  0  0  0  0  0  0  0  0  0
    4.3786   -5.1199    0.0000 C   0  0  0  0  0  0  0  0  0  0  0  0
    0.7500   -1.2990    0.0000 C   0  0  0  0  0  0  0  0  0  0  0  0
    1.5000    0.0000    0.0000 C   0  0  0  0  0  0  0  0  0  0  0  0
    0.7500    1.2990    0.0000 N   0  0  0  0  0  0  0  0  0  0  0  0
   -0.7500    1.2990    0.0000 C   0  0  0  0  0  0  0  0  0  0  0  0
   -1.5000    2.5981    0.0000 N   0  0  0  0  0  0  0  0  0  0  0  0
   -1.5000    0.0000    0.0000 N   0  0  0  0  0  0  0  0  0  0  0  0
   -0.7500   -1.2990    0.0000 C   0  0  0  0  0  0  0  0  0  0  0  0
  1  2  1  0
  2  3  1  0
  2  4  1  0
  4  5  1  0
  2  6  1  0
  6  7  1  0
  7  8  2  0
  8  9  1  0
  9 10  2  0
  9 11  1  0
 11 12  2  0
 12 13  1  0
 13 14  2  0
 14 15  1  0
 15 16  1  0
 16 17  1  0
 17 18  2  0
 17 19  1  0
 19 20  1  0
 20 21  2  0
 21 22  1  0
 22 23  2  0
 23 24  1  0
 23 25  1  0
 25 26  2  0
 15 27  2  0
  8 28  1  0
 28 29  2  0
 29 30  1  0
 30 31  1  0
 31 32  2  0
 31 33  1  0
 33 34  2  0
 34  6  1  0
 27 11  1  0
 34 28  1  0
 26 20  1  0
M  END
>  <Synonyms>  (42) 
PF-06273340|PF06273340

>  <Research Codes>  (42) 
PF06273340

>  <Phase>  (42) 
1

>  <Applicants>  (42) 
nan

>  <USAN Stem>  (42) 
nan

>  <USAN Year>  (42) 
nan

>  <USAN Stem Definition>  (42) 
nan

>  <USAN Stem Substem>  (42) 
nan

>  <First Approval>  (42) 
nan

>  <ATC Codes>  (42) 
nan

>  <Level 4 ATC Codes>  (42) 
nan

>  <Level 3 ATC Codes>  (42) 
nan

>  <Level 2 ATC Codes>  (42) 
nan

>  <Level 1 ATC Codes>  (42) 
nan

>  <Indication Class>  (42) 
nan

>  <Patent>  (42) 
nan

>  <Drug Type>  (42) 
1:Synthetic Small Molecule

>  <Passes Rule of Five>  (42) 
True

>  <First In Class>  (42) 
False

>  <Chirality>  (42) 
Achiral Molecule

>  <Prodrug>  (42) 
False

>  <Oral>  (42) 
False

>  <Parenteral>  (42) 
False

>  <Topical>  (42) 
False

>  <Black Box>  (42) 
False

>  <Availability Type>  (42) 
Unknown

>  <Withdrawn Year>  (42) 
nan

>  <Withdrawn Reason>  (42) 
nan

>  <Withdrawn Country>  (42) 
nan

>  <Withdrawn Class>  (42) 
nan

>  <SMILES>  (42) 
CC(C)(CO)n1cc(C(=O)c2cncc(NC(=O)Cc3ccc(Cl)cn3)c2)c2cnc(N)nc21

>  <InChi Key>  (42) 
BPIWZDNVMQQBQX-UHFFFAOYSA-N

$$$$
CHEMBL4297361
     RDKit          2D

 31 33  0  0  0  0  0  0  0  0999 V2000
    1.5000   -5.1962    0.0000 C   0  0  0  0  0  0  0  0  0  0  0  0
    3.0000   -5.1962    0.0000 C   0  0  0  0  0  0  0  0  0  0  0  0
    3.7500   -3.8971    0.0000 C   0  0  0  0  0  0  0  0  0  0  0  0
    3.0000   -2.5981    0.0000 C   0  0  0  0  0  0  0  0  0  0  0  0
    1.5000   -2.5981    0.0000 C   0  0  0  0  0  0  0  0  0  0  0  0
    0.7500   -1.2990    0.0000 C   0  0  0  0  0  0  0  0  0  0  0  0
    1.5000    0.0000    0.0000 C   0  0  0  0  0  0  0  0  0  0  0  0
    0.7500    1.2990    0.0000 C   0  0  0  0  0  0  0  0  0  0  0  0
   -0.7500    1.2990    0.0000 C   0  0  0  0  0  0  0  0  0  0  0  0
   -1.5000    0.0000    0.0000 C   0  0  0  0  0  0  0  0  0  0  0  0
   -2.3817    1.2135    0.0000 C   0  0  0  0  0  0  0  0  0  0  0  0
   -0.7500   -1.2990    0.0000 C   0  0  0  0  0  0  0  0  0  0  0  0
   -1.7537   -2.4138    0.0000 C   0  0  0  0  0  0  0  0  0  0  0  0
   -3.1240   -1.8037    0.0000 C   0  0  0  0  0  0  0  0  0  0  0  0
   -2.9672   -0.3119    0.0000 C   0  0  0  0  0  0  0  0  0  0  0  0
   -4.0819    0.6918    0.0000 C   0  0  0  0  0  0  0  0  0  0  0  0
   -5.5085    0.2283    0.0000 C   0  0  0  0  0  0  0  0  0  0  0  0
   -3.7701    2.1590    0.0000 C   0  0  0  0  0  0  0  0  0  0  0  0
   -4.8848    3.1627    0.0000 C   0  0  0  0  0  0  0  0  0  0  0  0
   -4.5729    4.6300    0.0000 C   0  0  0  0  0  0  0  0  0  0  0  0
   -5.6876    5.6337    0.0000 C   0  0  0  0  0  0  0  0  0  0  0  0
   -5.3758    7.1009    0.0000 C   0  0  0  0  0  0  0  0  0  0  0  0
   -3.1463    5.0935    0.0000 C   0  0  0  0  0  0  0  0  0  0  0  0
   -2.8345    6.5607    0.0000 C   0  0  0  0  0  0  0  0  0  0  0  0
   -2.0316    4.0898    0.0000 C   0  0  0  0  0  0  0  0  0  0  0  0
    5.2500   -3.8971    0.0000 C   0  0  0  0  0  0  0  0  0  0  0  0
    6.0000   -5.1962    0.0000 C   0  0  0  0  0  0  0  0  0  0  0  0
    7.5000   -5.1962    0.0000 O   0  0  0  0  0  0  0  0  0  0  0  0
    5.2500   -6.4952    0.0000 C   0  0  0  0  0  0  0  0  0  0  0  0
    3.7500   -6.4952    0.0000 C   0  0  0  0  0  0  0  0  0  0  0  0
    3.0000   -7.7942    0.0000 O   0  0  0  0  0  0  0  0  0  0  0  0
  1  2  2  0
  2  3  1  0
  3  4  2  0
  4  5  1  0
  5  6  2  0
  6  7  1  0
  7  8  1  0
  8  9  1  0
  9 10  1  0
 10 11  1  6
 10 12  1  0
 12 13  1  6
 13 14  1  0
 15 14  1  6
 15 16  1  0
 16 17  1  6
 16 18  1  0
 18 19  1  0
 20 19  1  1
 20 21  1  0
 21 22  1  0
 20 23  1  0
 23 24  1  0
 23 25  1  0
  3 26  1  0
 26 27  1  0
 27 28  1  1
 27 29  1  0
 29 30  1  0
 30 31  1  6
 30  2  1  0
 12  6  1  0
 15 10  1  0
M  END
>  <Synonyms>  (43) 
1.ALPHA.-HYDROXYVITAMIN D5|CARD-024|LS-144738|MN-201

>  <Research Codes>  (43) 
CARD-024|LS-144738|MN-201

>  <Phase>  (43) 
1

>  <Applicants>  (43) 
nan

>  <USAN Stem>  (43) 
nan

>  <USAN Year>  (43) 
nan

>  <USAN Stem Definition>  (43) 
nan

>  <USAN Stem Substem>  (43) 
nan

>  <First Approval>  (43) 
nan

>  <ATC Codes>  (43) 
nan

>  <Level 4 ATC Codes>  (43) 
nan

>  <Level 3 ATC Codes>  (43) 
nan

>  <Level 2 ATC Codes>  (43) 
nan

>  <Level 1 ATC Codes>  (43) 
nan

>  <Indication Class>  (43) 
nan

>  <Patent>  (43) 
nan

>  <Drug Type>  (43) 
7:Natural Product-derived

>  <Passes Rule of Five>  (43) 
False

>  <First In Class>  (43) 
False

>  <Chirality>  (43) 
Single Stereoisomer

>  <Prodrug>  (43) 
False

>  <Oral>  (43) 
False

>  <Parenteral>  (43) 
False

>  <Topical>  (43) 
False

>  <Black Box>  (43) 
False

>  <Availability Type>  (43) 
Unknown

>  <Withdrawn Year>  (43) 
nan

>  <Withdrawn Reason>  (43) 
nan

>  <Withdrawn Country>  (43) 
nan

>  <Withdrawn Class>  (43) 
nan

>  <SMILES>  (43) 
C=C1/C(=C\C=C2/CCC[C@@]3(C)[C@H]2CC[C@@H]3[C@H](C)CC[C@@H](CC)C(C)C)C[C@@H](O)C[C@@H]1O

>  <InChi Key>  (43) 
NWFOBODUYTUMNC-VPSCEVSQSA-N

$$$$
CHEMBL4297304
     RDKit          2D

 58 65  0  0  0  0  0  0  0  0999 V2000
   -9.1590   13.2671    0.0000 C   0  0  0  0  0  0  0  0  0  0  0  0
   -9.9539   11.9950    0.0000 O   0  0  0  0  0  0  0  0  0  0  0  0
   -9.2497   10.6706    0.0000 C   0  0  0  0  0  0  0  0  0  0  0  0
  -10.0446    9.3985    0.0000 C   0  0  0  0  0  0  0  0  0  0  0  0
   -9.3403    8.0741    0.0000 C   0  0  0  0  0  0  0  0  0  0  0  0
   -7.8413    8.0218    0.0000 C   0  0  0  0  0  0  0  0  0  0  0  0
   -7.1371    6.6973    0.0000 N   0  0  0  0  0  0  0  0  0  0  0  0
   -5.6380    6.6450    0.0000 C   0  0  0  0  0  0  0  0  0  0  0  0
   -4.8431    7.9171    0.0000 C   0  0  0  0  0  0  0  0  0  0  0  0
   -5.5473    9.2415    0.0000 N   0  0  0  0  0  0  0  0  0  0  0  0
   -7.0464    9.2938    0.0000 C   0  0  0  0  0  0  0  0  0  0  0  0
   -7.7506   10.6183    0.0000 C   0  0  0  0  0  0  0  0  0  0  0  0
   -3.6611    8.8406    0.0000 O   0  0  0  0  0  0  0  0  0  0  0  0
   -2.2345    9.3041    0.0000 C   0  0  0  0  0  0  0  0  0  0  0  0
   -1.4845   10.6031    0.0000 C   0  0  0  0  0  0  0  0  0  0  0  0
   -0.0173   10.2913    0.0000 C   0  0  0  0  0  0  0  0  0  0  0  0
    0.3867   11.7358    0.0000 C   0  0  0  0  0  0  0  0  0  0  0  0
   -0.9423   12.4313    0.0000 O   0  0  0  0  0  0  0  0  0  0  0  0
    1.3433   12.8912    0.0000 N   0  0  0  0  0  0  0  0  0  0  0  0
    2.6871   13.5576    0.0000 C   0  0  0  0  0  0  0  0  0  0  0  0
    1.6381   14.6298    0.0000 C   0  0  0  0  0  0  0  0  0  0  0  0
    0.1850   14.2573    0.0000 O   0  0  0  0  0  0  0  0  0  0  0  0
    2.0420   16.0744    0.0000 N   0  0  0  0  0  0  0  0  0  0  0  0
    0.9929   17.1465    0.0000 S   0  0  0  0  0  0  0  0  0  0  0  0
   -0.0792   16.0974    0.0000 O   0  0  0  0  0  0  0  0  0  0  0  0
    2.0651   18.1956    0.0000 O   0  0  0  0  0  0  0  0  0  0  0  0
   -0.0561   18.2186    0.0000 C   0  0  0  0  0  0  0  0  0  0  0  0
   -1.2941   17.3717    0.0000 C   0  0  0  0  0  0  0  0  0  0  0  0
   -0.6752   19.5849    0.0000 C   0  0  0  0  0  0  0  0  0  0  0  0
    0.8176   19.4379    0.0000 C   0  0  0  0  0  0  0  0  0  0  0  0
    3.3826   14.8867    0.0000 C   0  0  0  0  0  0  0  0  0  0  0  0
    4.1858   13.6199    0.0000 C   0  0  0  0  0  0  0  0  0  0  0  0
    5.5803   13.0671    0.0000 C   0  0  0  0  0  0  0  0  0  0  0  0
    6.6293   11.9950    0.0000 C   0  0  0  0  0  0  0  0  0  0  0  0
    7.1516   10.5889    0.0000 C   0  0  0  0  0  0  0  0  0  0  0  0
    7.0569    9.0919    0.0000 C   0  0  0  0  0  0  0  0  0  0  0  0
    6.3614    7.7628    0.0000 C   0  0  0  0  0  0  0  0  0  0  0  0
    5.1855    6.8316    0.0000 C   0  0  0  0  0  0  0  0  0  0  0  0
    3.7324    6.4591    0.0000 C   0  0  0  0  0  0  0  0  0  0  0  0
    2.4743    6.3617    0.0000 C   0  0  0  0  0  0  0  0  0  0  0  0
    2.6831    4.8763    0.0000 N   0  0  0  0  0  0  0  0  0  0  0  0
    2.3712    3.4091    0.0000 C   0  0  0  0  0  0  0  0  0  0  0  0
    3.7620    2.8472    0.0000 O   0  0  0  0  0  0  0  0  0  0  0  0
    1.5763    2.1370    0.0000 O   0  0  0  0  0  0  0  0  0  0  0  0
    0.3943    1.2135    0.0000 C   0  0  0  0  0  0  0  0  0  0  0  0
    1.2760    0.0000    0.0000 C   0  0  0  0  0  0  0  0  0  0  0  0
    0.3943   -1.2135    0.0000 C   0  0  0  0  0  0  0  0  0  0  0  0
   -1.0323   -0.7500    0.0000 C   0  0  0  0  0  0  0  0  0  0  0  0
   -1.0323    0.7500    0.0000 C   0  0  0  0  0  0  0  0  0  0  0  0
   -2.5314    0.8023    0.0000 C   0  0  0  0  0  0  0  0  0  0  0  0
   -3.9221    1.3643    0.0000 C   0  0  0  0  0  0  0  0  0  0  0  0
   -5.0369    2.3680    0.0000 C   0  0  0  0  0  0  0  0  0  0  0  0
   -5.7411    3.6924    0.0000 C   0  0  0  0  0  0  0  0  0  0  0  0
   -5.9498    5.1778    0.0000 C   0  0  0  0  0  0  0  0  0  0  0  0
    1.7701    7.6861    0.0000 C   0  0  0  0  0  0  0  0  0  0  0  0
    2.9521    8.6096    0.0000 O   0  0  0  0  0  0  0  0  0  0  0  0
    0.6554    8.6898    0.0000 N   0  0  0  0  0  0  0  0  0  0  0  0
   -0.7354    9.2517    0.0000 C   0  0  0  0  0  0  0  0  0  0  0  0
  1  2  1  0
  2  3  1  0
  3  4  2  0
  4  5  1  0
  5  6  2  0
  6  7  1  0
  7  8  2  0
  8  9  1  0
  9 10  2  0
 10 11  1  0
 11 12  2  0
  9 13  1  0
 13 14  1  0
 14 15  1  6
 15 16  1  0
 16 17  1  0
 17 18  2  0
 17 19  1  0
 19 20  1  0
 20 21  1  1
 21 22  2  0
 21 23  1  0
 23 24  1  0
 24 25  2  0
 24 26  2  0
 24 27  1  0
 27 28  1  0
 27 29  1  0
 29 30  1  0
 20 31  1  0
 32 31  1  1
 32 33  1  0
 33 34  2  0
 34 35  1  0
 35 36  1  0
 36 37  1  0
 37 38  1  0
 38 39  1  0
 39 40  1  0
 40 41  1  0
 41 42  1  0
 42 43  2  0
 42 44  1  0
 44 45  1  0
 45 46  1  6
 46 47  1  0
 47 48  1  0
 49 48  1  1
 49 50  1  0
 50 51  1  0
 51 52  1  0
 52 53  1  0
 53 54  1  0
 40 55  1  0
 55 56  2  0
 55 57  1  0
 57 58  1  0
 12  3  1  0
 58 14  1  0
 11  6  1  0
 57 16  1  0
 54  8  1  0
 32 20  1  0
 49 45  1  0
 30 27  1  0
M  END
>  <Synonyms>  (44) 
MK 6325|MK-6325

>  <Research Codes>  (44) 
MK 6325

>  <Phase>  (44) 
1

>  <Applicants>  (44) 
nan

>  <USAN Stem>  (44) 
nan

>  <USAN Year>  (44) 
nan

>  <USAN Stem Definition>  (44) 
nan

>  <USAN Stem Substem>  (44) 
nan

>  <First Approval>  (44) 
nan

>  <ATC Codes>  (44) 
nan

>  <Level 4 ATC Codes>  (44) 
nan

>  <Level 3 ATC Codes>  (44) 
nan

>  <Level 2 ATC Codes>  (44) 
nan

>  <Level 1 ATC Codes>  (44) 
nan

>  <Indication Class>  (44) 
nan

>  <Patent>  (44) 
nan

>  <Drug Type>  (44) 
7:Natural Product-derived

>  <Passes Rule of Five>  (44) 
False

>  <First In Class>  (44) 
False

>  <Chirality>  (44) 
Single Stereoisomer

>  <Prodrug>  (44) 
False

>  <Oral>  (44) 
False

>  <Parenteral>  (44) 
False

>  <Topical>  (44) 
False

>  <Black Box>  (44) 
False

>  <Availability Type>  (44) 
Unknown

>  <Withdrawn Year>  (44) 
nan

>  <Withdrawn Reason>  (44) 
nan

>  <Withdrawn Country>  (44) 
nan

>  <Withdrawn Class>  (44) 
nan

>  <SMILES>  (44) 
COc1ccc2nc3c(nc2c1)O[C@@H]1C[C@H]2C(=O)N[C@]4(C(=O)NS(=O)(=O)C5(C)CC5)C[C@H]4/C=C/CCCCC[C@H](NC(=O)O[C@@H]4CCC[C@H]4CCCCC3)C(=O)N2C1

>  <InChi Key>  (44) 
BLFKRFGLQFYXDF-XLMXLXLWSA-N

$$$$
CHEMBL4297317
     RDKit          2D

 20 21  0  0  0  0  0  0  0  0999 V2000
   -1.2990   -7.3573    0.0000 C   0  0  0  0  0  0  0  0  0  0  0  0
   -1.2990   -5.8573    0.0000 C   0  0  0  0  0  0  0  0  0  0  0  0
   -2.5981   -5.1073    0.0000 C   0  0  0  0  0  0  0  0  0  0  0  0
   -3.8971   -5.8573    0.0000 N   0  0  0  0  0  0  0  0  0  0  0  0
   -2.5981   -3.6073    0.0000 O   0  0  0  0  0  0  0  0  0  0  0  0
   -0.0000   -5.1073    0.0000 C   0  0  0  0  0  0  0  0  0  0  0  0
    1.2990   -5.8573    0.0000 N   0  0  0  0  0  0  0  0  0  0  0  0
   -0.0000   -3.6073    0.0000 C   0  0  0  0  0  0  0  0  0  0  0  0
    1.2135   -2.7256    0.0000 N   0  0  0  0  0  0  0  0  0  0  0  0
    0.7500   -1.2990    0.0000 C   0  0  0  0  0  0  0  0  0  0  0  0
    1.5000    0.0000    0.0000 C   0  0  0  0  0  0  0  0  0  0  0  0
    0.7500    1.2990    0.0000 C   0  0  0  0  0  0  0  0  0  0  0  0
   -0.7500    1.2990    0.0000 C   0  0  0  0  0  0  0  0  0  0  0  0
   -1.5000    2.5981    0.0000 C   0  0  0  0  0  0  0  0  0  0  0  0
   -0.2010    3.3481    0.0000 C   0  0  0  0  0  0  0  0  0  0  0  0
   -2.7990    1.8481    0.0000 C   0  0  0  0  0  0  0  0  0  0  0  0
   -2.2500    3.8971    0.0000 C   0  0  0  0  0  0  0  0  0  0  0  0
   -1.5000    0.0000    0.0000 C   0  0  0  0  0  0  0  0  0  0  0  0
   -0.7500   -1.2990    0.0000 C   0  0  0  0  0  0  0  0  0  0  0  0
   -1.2135   -2.7256    0.0000 N   0  0  0  0  0  0  0  0  0  0  0  0
  1  2  1  0
  2  3  1  0
  3  4  1  0
  3  5  2  0
  2  6  1  0
  6  7  1  0
  6  8  1  0
  8  9  1  0
  9 10  1  0
 10 11  2  0
 11 12  1  0
 12 13  2  0
 13 14  1  0
 14 15  1  0
 14 16  1  0
 14 17  1  0
 13 18  1  0
 18 19  2  0
 19 20  1  0
 20  8  2  0
 19 10  1  0
M  END
>  <Synonyms>  (45) 
PF-06305591|PF-6305591

>  <Research Codes>  (45) 
PF-6305591

>  <Phase>  (45) 
1

>  <Applicants>  (45) 
nan

>  <USAN Stem>  (45) 
nan

>  <USAN Year>  (45) 
nan

>  <USAN Stem Definition>  (45) 
nan

>  <USAN Stem Substem>  (45) 
nan

>  <First Approval>  (45) 
nan

>  <ATC Codes>  (45) 
nan

>  <Level 4 ATC Codes>  (45) 
nan

>  <Level 3 ATC Codes>  (45) 
nan

>  <Level 2 ATC Codes>  (45) 
nan

>  <Level 1 ATC Codes>  (45) 
nan

>  <Indication Class>  (45) 
nan

>  <Patent>  (45) 
nan

>  <Drug Type>  (45) 
1:Synthetic Small Molecule

>  <Passes Rule of Five>  (45) 
True

>  <First In Class>  (45) 
False

>  <Chirality>  (45) 
Single Stereoisomer

>  <Prodrug>  (45) 
False

>  <Oral>  (45) 
False

>  <Parenteral>  (45) 
False

>  <Topical>  (45) 
False

>  <Black Box>  (45) 
False

>  <Availability Type>  (45) 
Unknown

>  <Withdrawn Year>  (45) 
nan

>  <Withdrawn Reason>  (45) 
nan

>  <Withdrawn Country>  (45) 
nan

>  <Withdrawn Class>  (45) 
nan

>  <SMILES>  (45) 
C[C@@H](C(N)=O)[C@H](N)c1nc2ccc(C(C)(C)C)cc2[nH]1

>  <InChi Key>  (45) 
APWZIFIAVVFPNT-UHFFFAOYSA-N

$$$$
CHEMBL4297346
     RDKit          2D

 38 41  0  0  0  0  0  0  0  0999 V2000
    3.7500   -1.2990    0.0000 C   0  0  0  0  0  0  0  0  0  0  0  0
    3.0000    0.0000    0.0000 O   0  0  0  0  0  0  0  0  0  0  0  0
    1.5000    0.0000    0.0000 C   0  0  0  0  0  0  0  0  0  0  0  0
    0.7500   -1.2990    0.0000 C   0  0  0  0  0  0  0  0  0  0  0  0
   -0.7500   -1.2990    0.0000 C   0  0  0  0  0  0  0  0  0  0  0  0
   -1.5000    0.0000    0.0000 C   0  0  0  0  0  0  0  0  0  0  0  0
   -0.7500    1.2990    0.0000 C   0  0  0  0  0  0  0  0  0  0  0  0
    0.7500    1.2990    0.0000 C   0  0  0  0  0  0  0  0  0  0  0  0
   -1.7537    2.4138    0.0000 N   0  0  0  0  0  0  0  0  0  0  0  0
   -3.1240    1.8037    0.0000 C   0  0  0  0  0  0  0  0  0  0  0  0
   -4.4231    2.5537    0.0000 S   0  0  0  0  0  3  0  0  0  0  0  0
   -5.7221    1.8037    0.0000 O   0  0  0  0  0  1  0  0  0  0  0  0
   -4.4231    4.0537    0.0000 C   0  0  0  0  0  0  0  0  0  0  0  0
   -5.7221    4.8037    0.0000 C   0  0  0  0  0  0  0  0  0  0  0  0
   -5.7221    6.3037    0.0000 N   0  0  0  0  0  0  0  0  0  0  0  0
   -7.0211    7.0537    0.0000 C   0  0  0  0  0  0  0  0  0  0  0  0
   -8.3202    6.3037    0.0000 C   0  0  0  0  0  0  0  0  0  0  0  0
   -9.6192    7.0537    0.0000 C   0  0  0  0  0  0  0  0  0  0  0  0
   -8.3202    4.8037    0.0000 C   0  0  0  0  0  0  0  0  0  0  0  0
   -9.6192    4.0537    0.0000 O   0  0  0  0  0  0  0  0  0  0  0  0
   -9.6192    2.5537    0.0000 C   0  0  0  0  0  0  0  0  0  0  0  0
   -7.0211    4.0537    0.0000 C   0  0  0  0  0  0  0  0  0  0  0  0
   -7.0211    2.5537    0.0000 C   0  0  0  0  0  0  0  0  0  0  0  0
   -2.9672    0.3119    0.0000 N   0  0  0  0  0  0  0  0  0  0  0  0
   -4.0819   -0.6918    0.0000 S   0  0  0  0  0  0  0  0  0  0  0  0
   -3.0782   -1.8065    0.0000 O   0  0  0  0  0  0  0  0  0  0  0  0
   -5.0856    0.4229    0.0000 O   0  0  0  0  0  0  0  0  0  0  0  0
   -5.1967   -1.6955    0.0000 C   0  0  0  0  0  0  0  0  0  0  0  0
   -6.6232   -1.2320    0.0000 C   0  0  0  0  0  0  0  0  0  0  0  0
   -7.7380   -2.2357    0.0000 C   0  0  0  0  0  0  0  0  0  0  0  0
   -7.4261   -3.7029    0.0000 C   0  0  0  0  0  0  0  0  0  0  0  0
   -8.5408   -4.7066    0.0000 O   0  0  0  0  0  0  0  0  0  0  0  0
   -9.9674   -4.2431    0.0000 C   0  0  0  0  0  0  0  0  0  0  0  0
  -11.0821   -5.2468    0.0000 C   0  0  0  0  0  0  0  0  0  0  0  0
  -12.5087   -4.7833    0.0000 O   0  0  0  0  0  0  0  0  0  0  0  0
  -10.7702   -6.7140    0.0000 O   0  0  0  0  0  0  0  0  0  0  0  0
   -5.9995   -4.1664    0.0000 C   0  0  0  0  0  0  0  0  0  0  0  0
   -4.8848   -3.1627    0.0000 C   0  0  0  0  0  0  0  0  0  0  0  0
  1  2  1  0
  2  3  1  0
  3  4  2  0
  4  5  1  0
  5  6  2  0
  6  7  1  0
  7  8  2  0
  7  9  1  0
  9 10  2  0
 10 11  1  0
 11 12  1  0
 11 13  1  0
 13 14  1  0
 14 15  2  0
 15 16  1  0
 16 17  2  0
 17 18  1  0
 17 19  1  0
 19 20  1  0
 20 21  1  0
 19 22  2  0
 22 23  1  0
 10 24  1  0
 24 25  1  0
 25 26  2  0
 25 27  2  0
 25 28  1  0
 28 29  2  0
 29 30  1  0
 30 31  2  0
 31 32  1  0
 32 33  1  0
 33 34  1  0
 34 35  2  0
 34 36  1  0
 31 37  1  0
 37 38  2  0
  8  3  1  0
 22 14  1  0
 38 28  1  0
 24  6  1  0
M  CHG  2  11   1  12  -1
M  END
>  <Synonyms>  (46) 
AGN 201904|AGN-201904

>  <Research Codes>  (46) 
AGN 201904

>  <Phase>  (46) 
1

>  <Applicants>  (46) 
nan

>  <USAN Stem>  (46) 
nan

>  <USAN Year>  (46) 
nan

>  <USAN Stem Definition>  (46) 
nan

>  <USAN Stem Substem>  (46) 
nan

>  <First Approval>  (46) 
nan

>  <ATC Codes>  (46) 
nan

>  <Level 4 ATC Codes>  (46) 
nan

>  <Level 3 ATC Codes>  (46) 
nan

>  <Level 2 ATC Codes>  (46) 
nan

>  <Level 1 ATC Codes>  (46) 
nan

>  <Indication Class>  (46) 
nan

>  <Patent>  (46) 
nan

>  <Drug Type>  (46) 
1:Synthetic Small Molecule

>  <Passes Rule of Five>  (46) 
False

>  <First In Class>  (46) 
False

>  <Chirality>  (46) 
Racemic Mixture

>  <Prodrug>  (46) 
False

>  <Oral>  (46) 
False

>  <Parenteral>  (46) 
False

>  <Topical>  (46) 
False

>  <Black Box>  (46) 
False

>  <Availability Type>  (46) 
Unknown

>  <Withdrawn Year>  (46) 
nan

>  <Withdrawn Reason>  (46) 
nan

>  <Withdrawn Country>  (46) 
nan

>  <Withdrawn Class>  (46) 
nan

>  <SMILES>  (46) 
COc1ccc2c(c1)nc([S+]([O-])Cc1ncc(C)c(OC)c1C)n2S(=O)(=O)c1ccc(OCC(=O)O)cc1

>  <InChi Key>  (46) 
PPCGSVWOZKNPCX-UHFFFAOYSA-N

$$$$
CHEMBL4297350
     RDKit          2D

 31 34  0  0  0  0  0  0  0  0999 V2000
   -4.6080   14.6663    0.0000 C   0  0  0  0  0  0  0  0  0  0  0  0
   -4.2961   13.1991    0.0000 C   0  0  0  0  0  0  0  0  0  0  0  0
   -5.4108   12.1954    0.0000 O   0  0  0  0  0  0  0  0  0  0  0  0
   -5.0990   10.7282    0.0000 C   0  0  0  0  0  0  0  0  0  0  0  0
   -3.6724   10.2646    0.0000 C   0  0  0  0  0  0  0  0  0  0  0  0
   -3.3605    8.7974    0.0000 C   0  0  0  0  0  0  0  0  0  0  0  0
   -4.4752    7.7937    0.0000 C   0  0  0  0  0  0  0  0  0  0  0  0
   -4.1634    6.3265    0.0000 C   0  0  0  0  0  0  0  0  0  0  0  0
   -2.7931    5.7164    0.0000 N   0  0  0  0  0  0  0  0  0  0  0  0
   -2.9499    4.2246    0.0000 C   0  0  0  0  0  0  0  0  0  0  0  0
   -1.8351    3.2209    0.0000 C   0  0  0  0  0  0  0  0  0  0  0  0
   -0.4086    3.6844    0.0000 C   0  0  0  0  0  0  0  0  0  0  0  0
    0.7062    2.6807    0.0000 C   0  0  0  0  0  0  0  0  0  0  0  0
    0.3943    1.2135    0.0000 C   0  0  0  0  0  0  0  0  0  0  0  0
    1.2760    0.0000    0.0000 N   0  0  0  0  0  0  0  0  0  0  0  0
    0.3943   -1.2135    0.0000 C   0  0  0  0  0  0  0  0  0  0  0  0
   -1.0323   -0.7500    0.0000 N   0  0  0  0  0  0  0  0  0  0  0  0
   -1.0323    0.7500    0.0000 C   0  0  0  0  0  0  0  0  0  0  0  0
   -2.1470    1.7537    0.0000 C   0  0  0  0  0  0  0  0  0  0  0  0
   -4.4171    3.9127    0.0000 N   0  0  0  0  0  0  0  0  0  0  0  0
   -5.1671    5.2118    0.0000 O   0  0  0  0  0  0  0  0  0  0  0  0
   -5.9018    8.2572    0.0000 C   0  0  0  0  0  0  0  0  0  0  0  0
   -6.2137    9.7245    0.0000 C   0  0  0  0  0  0  0  0  0  0  0  0
   -7.6403   10.1880    0.0000 C   0  0  0  0  0  0  0  0  0  0  0  0
   -9.0669   10.6515    0.0000 F   0  0  0  0  0  0  0  0  0  0  0  0
   -8.1038    8.7614    0.0000 F   0  0  0  0  0  0  0  0  0  0  0  0
   -7.1768   11.6146    0.0000 F   0  0  0  0  0  0  0  0  0  0  0  0
   -2.8695   12.7356    0.0000 C   0  0  0  0  0  0  0  0  0  0  0  0
   -1.4430   12.2720    0.0000 F   0  0  0  0  0  0  0  0  0  0  0  0
   -2.4060   14.1621    0.0000 F   0  0  0  0  0  0  0  0  0  0  0  0
   -3.3331   11.3090    0.0000 F   0  0  0  0  0  0  0  0  0  0  0  0
  2  1  1  1
  2  3  1  0
  3  4  1  0
  4  5  2  0
  5  6  1  0
  6  7  2  0
  7  8  1  0
  8  9  2  0
  9 10  1  0
 10 11  1  0
 11 12  2  0
 12 13  1  0
 13 14  2  0
 14 15  1  0
 15 16  1  0
 16 17  2  0
 17 18  1  0
 18 19  2  0
 10 20  2  0
 20 21  1  0
  7 22  1  0
 22 23  2  0
 23 24  1  0
 24 25  1  0
 24 26  1  0
 24 27  1  0
  2 28  1  0
 28 29  1  0
 28 30  1  0
 28 31  1  0
 23  4  1  0
 21  8  1  0
 19 11  1  0
 18 14  1  0
M  END
>  <Synonyms>  (47) 
ASP-4058|ASP4058

>  <Research Codes>  (47) 
ASP4058

>  <Phase>  (47) 
1

>  <Applicants>  (47) 
nan

>  <USAN Stem>  (47) 
nan

>  <USAN Year>  (47) 
nan

>  <USAN Stem Definition>  (47) 
nan

>  <USAN Stem Substem>  (47) 
nan

>  <First Approval>  (47) 
nan

>  <ATC Codes>  (47) 
nan

>  <Level 4 ATC Codes>  (47) 
nan

>  <Level 3 ATC Codes>  (47) 
nan

>  <Level 2 ATC Codes>  (47) 
nan

>  <Level 1 ATC Codes>  (47) 
nan

>  <Indication Class>  (47) 
nan

>  <Patent>  (47) 
nan

>  <Drug Type>  (47) 
1:Synthetic Small Molecule

>  <Passes Rule of Five>  (47) 
False

>  <First In Class>  (47) 
False

>  <Chirality>  (47) 
Single Stereoisomer

>  <Prodrug>  (47) 
False

>  <Oral>  (47) 
False

>  <Parenteral>  (47) 
False

>  <Topical>  (47) 
False

>  <Black Box>  (47) 
False

>  <Availability Type>  (47) 
Unknown

>  <Withdrawn Year>  (47) 
nan

>  <Withdrawn Reason>  (47) 
nan

>  <Withdrawn Country>  (47) 
nan

>  <Withdrawn Class>  (47) 
nan

>  <SMILES>  (47) 
C[C@H](Oc1ccc(-c2nc(-c3ccc4[nH]cnc4c3)no2)cc1C(F)(F)F)C(F)(F)F

>  <InChi Key>  (47) 
NJNXCJPSMWKXHO-VIFPVBQESA-N

$$$$
CHEMBL4297360
     RDKit          2D

 33 34  0  0  0  0  0  0  0  0999 V2000
   12.7391   -7.0010    0.0000 C   0  0  0  0  0  0  0  0  0  0  0  0
   11.3688   -6.3909    0.0000 C   0  0  0  0  0  0  0  0  0  0  0  0
   10.1552   -7.2726    0.0000 C   0  0  0  0  0  0  0  0  0  0  0  0
    8.7849   -6.6625    0.0000 C   0  0  0  0  0  0  0  0  0  0  0  0
    7.5714   -7.5442    0.0000 O   0  0  0  0  0  0  0  0  0  0  0  0
    6.2011   -6.9341    0.0000 P   0  0  0  0  0  7  0  0  0  0  0  0
    5.5910   -8.3044    0.0000 O   0  0  0  0  0  0  0  0  0  0  0  0
    6.8112   -5.5638    0.0000 O   0  0  0  0  0  0  0  0  0  0  0  0
    4.8308   -6.3240    0.0000 O   0  0  0  0  0  0  0  0  0  0  0  0
    4.6740   -4.8322    0.0000 C   0  0  0  0  0  0  0  0  0  0  0  0
    3.3037   -4.2221    0.0000 C   0  0  0  0  0  0  0  0  0  0  0  0
    2.9918   -2.7549    0.0000 O   0  0  0  0  0  0  0  0  0  0  0  0
    1.5000   -2.5981    0.0000 C   0  0  0  0  0  0  0  0  0  0  0  0
    0.7500   -1.2990    0.0000 N   0  0  0  0  0  0  0  0  0  0  0  0
    1.5000    0.0000    0.0000 C   0  0  0  0  0  0  0  0  0  0  0  0
    0.7500    1.2990    0.0000 C   0  0  0  0  0  0  0  0  0  0  0  0
    1.5000    2.5981    0.0000 C   0  0  0  0  0  0  0  0  0  0  0  0
   -0.7500    1.2990    0.0000 C   0  0  0  0  0  0  0  0  0  0  0  0
   -1.5000    2.5981    0.0000 O   0  0  0  0  0  0  0  0  0  0  0  0
   -1.5000    0.0000    0.0000 N   0  0  0  0  0  0  0  0  0  0  0  0
   -0.7500   -1.2990    0.0000 C   0  0  0  0  0  0  0  0  0  0  0  0
   -1.5000   -2.5981    0.0000 O   0  0  0  0  0  0  0  0  0  0  0  0
    0.8899   -3.9684    0.0000 C   0  0  0  0  0  0  0  0  0  0  0  0
    2.0046   -4.9721    0.0000 C   0  0  0  0  0  0  0  0  0  0  0  0
    1.8478   -6.4639    0.0000 O   0  0  0  0  0  0  0  0  0  0  0  0
    0.4775   -7.0740    0.0000 P   0  0  0  0  0  7  0  0  0  0  0  0
    1.0876   -8.4443    0.0000 O   0  0  0  0  0  0  0  0  0  0  0  0
   -0.1326   -5.7037    0.0000 O   0  0  0  0  0  0  0  0  0  0  0  0
   -0.8928   -7.6841    0.0000 O   0  0  0  0  0  0  0  0  0  0  0  0
   -2.1063   -6.8024    0.0000 C   0  0  0  0  0  0  0  0  0  0  0  0
   -3.4767   -7.4125    0.0000 C   0  0  0  0  0  0  0  0  0  0  0  0
   -4.6902   -6.5308    0.0000 C   0  0  0  0  0  0  0  0  0  0  0  0
   -6.0605   -7.1409    0.0000 C   0  0  0  0  0  0  0  0  0  0  0  0
  1  2  1  0
  2  3  1  0
  3  4  1  0
  4  5  1  0
  5  6  1  0
  6  7  2  0
  6  8  2  0
  6  9  1  0
  9 10  1  0
 11 10  1  6
 11 12  1  0
 12 13  1  0
 13 14  1  6
 14 15  1  0
 15 16  2  0
 16 17  1  0
 16 18  1  0
 18 19  2  0
 18 20  1  0
 20 21  1  0
 21 22  2  0
 13 23  1  0
 23 24  1  0
 24 25  1  1
 25 26  1  0
 26 27  2  0
 26 28  2  0
 26 29  1  0
 29 30  1  0
 30 31  1  0
 31 32  1  0
 32 33  1  0
 24 11  1  0
 21 14  1  0
M  END
>  <Synonyms>  (48) 
BISPHOSPHOCIN NU-3|NU-3

>  <Research Codes>  (48) 
nan

>  <Phase>  (48) 
1

>  <Applicants>  (48) 
nan

>  <USAN Stem>  (48) 
nan

>  <USAN Year>  (48) 
nan

>  <USAN Stem Definition>  (48) 
nan

>  <USAN Stem Substem>  (48) 
nan

>  <First Approval>  (48) 
nan

>  <ATC Codes>  (48) 
nan

>  <Level 4 ATC Codes>  (48) 
nan

>  <Level 3 ATC Codes>  (48) 
nan

>  <Level 2 ATC Codes>  (48) 
nan

>  <Level 1 ATC Codes>  (48) 
nan

>  <Indication Class>  (48) 
nan

>  <Patent>  (48) 
nan

>  <Drug Type>  (48) 
7:Natural Product-derived

>  <Passes Rule of Five>  (48) 
False

>  <First In Class>  (48) 
False

>  <Chirality>  (48) 
Single Stereoisomer

>  <Prodrug>  (48) 
False

>  <Oral>  (48) 
False

>  <Parenteral>  (48) 
False

>  <Topical>  (48) 
False

>  <Black Box>  (48) 
False

>  <Availability Type>  (48) 
Unknown

>  <Withdrawn Year>  (48) 
nan

>  <Withdrawn Reason>  (48) 
nan

>  <Withdrawn Country>  (48) 
nan

>  <Withdrawn Class>  (48) 
nan

>  <SMILES>  (48) 
CCCCOP(=O)(O)OC[C@H]1O[C@@H](n2cc(C)c(=O)[nH]c2=O)C[C@@H]1OP(=O)(O)OCCCC

>  <InChi Key>  (48) 
OFROFGJFJSKDLV-ARFHVFGLSA-N

$$$$
CHEMBL4302826
     RDKit          2D

 15 15  0  0  0  0  0  0  0  0999 V2000
    3.0000   -2.5981    0.0000 N   0  0  0  0  0  0  0  0  0  0  0  0
    3.7500   -1.2990    0.0000 C   0  0  0  0  0  0  0  0  0  0  0  0
    3.0000    0.0000    0.0000 C   0  0  0  0  0  0  0  0  0  0  0  0
    1.5000    0.0000    0.0000 C   0  0  0  0  0  0  0  0  0  0  0  0
    0.7500   -1.2990    0.0000 C   0  0  0  0  0  0  0  0  0  0  0  0
   -0.7500   -1.2990    0.0000 C   0  0  0  0  0  0  0  0  0  0  0  0
   -1.5000    0.0000    0.0000 C   0  0  0  0  0  0  0  0  0  0  0  0
   -3.0000    0.0000    0.0000 O   0  0  0  0  0  0  0  0  0  0  0  0
   -3.7500    1.2990    0.0000 C   0  0  0  0  0  0  0  0  0  0  0  0
   -5.2500    1.2990    0.0000 F   0  0  0  0  0  0  0  0  0  0  0  0
   -0.7500    1.2990    0.0000 C   0  0  0  0  0  0  0  0  0  0  0  0
    0.7500    1.2990    0.0000 C   0  0  0  0  0  0  0  0  0  0  0  0
    5.2500   -1.2990    0.0000 C   0  0  0  0  0  0  0  0  0  0  0  0
    6.0000   -2.5981    0.0000 O   0  0  0  0  0  0  0  0  0  0  0  0
    6.0000    0.0000    0.0000 O   0  0  0  0  0  0  0  0  0  0  0  0
  1  2  1  0
  2  3  1  0
  3  4  1  0
  4  5  2  0
  5  6  1  0
  6  7  2  0
  7  8  1  0
  8  9  1  0
  9 10  1  0
  7 11  1  0
 11 12  2  0
  2 13  1  0
 13 14  2  0
 13 15  1  0
 12  4  1  0
M  END
>  <Synonyms>  (49) 
nan

>  <Research Codes>  (49) 
nan

>  <Phase>  (49) 
1

>  <Applicants>  (49) 
nan

>  <USAN Stem>  (49) 
nan

>  <USAN Year>  (49) 
nan

>  <USAN Stem Definition>  (49) 
nan

>  <USAN Stem Substem>  (49) 
nan

>  <First Approval>  (49) 
nan

>  <ATC Codes>  (49) 
nan

>  <Level 4 ATC Codes>  (49) 
nan

>  <Level 3 ATC Codes>  (49) 
nan

>  <Level 2 ATC Codes>  (49) 
nan

>  <Level 1 ATC Codes>  (49) 
nan

>  <Indication Class>  (49) 
nan

>  <Patent>  (49) 
nan

>  <Drug Type>  (49) 
1:Synthetic Small Molecule

>  <Passes Rule of Five>  (49) 
True

>  <First In Class>  (49) 
False

>  <Chirality>  (49) 
Single Stereoisomer

>  <Prodrug>  (49) 
False

>  <Oral>  (49) 
False

>  <Parenteral>  (49) 
False

>  <Topical>  (49) 
False

>  <Black Box>  (49) 
False

>  <Availability Type>  (49) 
Unknown

>  <Withdrawn Year>  (49) 
nan

>  <Withdrawn Reason>  (49) 
nan

>  <Withdrawn Country>  (49) 
nan

>  <Withdrawn Class>  (49) 
nan

>  <SMILES>  (49) 
N[C@H](Cc1ccc(OCF)cc1)C(=O)O

>  <InChi Key>  (49) 
GEBHVOHKNWLITQ-UHFFFAOYSA-N

$$$$
CHEMBL4302412
     RDKit          2D

 21 24  0  0  0  0  0  0  0  0999 V2000
    6.9490   -8.1760    0.0000 O   0  0  0  0  0  0  0  0  0  0  0  0
    5.4511   -8.2545    0.0000 C   0  0  0  0  0  0  0  0  0  0  0  0
    4.7701   -9.5910    0.0000 O   0  0  0  0  0  0  0  0  0  0  0  0
    4.6341   -6.9965    0.0000 C   0  0  0  0  0  0  0  0  0  0  0  0
    5.1717   -5.5961    0.0000 C   0  0  0  0  0  0  0  0  0  0  0  0
    4.0059   -4.6521    0.0000 S   0  0  0  0  0  0  0  0  0  0  0  0
    2.7479   -5.4691    0.0000 C   0  0  0  0  0  0  0  0  0  0  0  0
    1.2990   -5.8573    0.0000 C   0  0  0  0  0  0  0  0  0  0  0  0
   -0.0000   -5.1073    0.0000 C   0  0  0  0  0  0  0  0  0  0  0  0
   -0.0000   -3.6073    0.0000 C   0  0  0  0  0  0  0  0  0  0  0  0
   -1.2135   -2.7256    0.0000 C   0  0  0  0  0  0  0  0  0  0  0  0
   -0.7500   -1.2990    0.0000 N   0  0  0  0  0  0  0  0  0  0  0  0
    0.7500   -1.2990    0.0000 C   0  0  0  0  0  0  0  0  0  0  0  0
    1.2135   -2.7256    0.0000 N   0  0  0  0  0  0  0  0  0  0  0  0
    1.5000    0.0000    0.0000 C   0  0  0  0  0  0  0  0  0  0  0  0
    0.7500    1.2990    0.0000 O   0  0  0  0  0  0  0  0  0  0  0  0
   -0.7500    1.2990    0.0000 C   0  0  0  0  0  0  0  0  0  0  0  0
   -1.5000    0.0000    0.0000 C   0  0  0  0  0  0  0  0  0  0  0  0
    1.6873   -7.3062    0.0000 C   0  0  0  0  0  0  0  0  0  0  0  0
    0.9373   -8.6052    0.0000 O   0  0  0  0  0  0  0  0  0  0  0  0
    3.1362   -6.9180    0.0000 N   0  0  0  0  0  0  0  0  0  0  0  0
  1  2  2  0
  2  3  1  0
  2  4  1  0
  4  5  2  0
  5  6  1  0
  7  6  1  1
  7  8  1  0
  8  9  2  0
  9 10  1  0
 10 11  2  0
 11 12  1  0
 12 13  1  0
 13 14  2  0
 13 15  1  0
 15 16  1  0
 16 17  1  0
 17 18  1  0
  8 19  1  0
 19 20  2  0
 19 21  1  0
 21  4  1  0
 21  7  1  0
 14 10  1  0
 18 12  1  0
M  END
>  <Synonyms>  (50) 
nan

>  <Research Codes>  (50) 
nan

>  <Phase>  (50) 
1

>  <Applicants>  (50) 
nan

>  <USAN Stem>  (50) 
nan

>  <USAN Year>  (50) 
nan

>  <USAN Stem Definition>  (50) 
nan

>  <USAN Stem Substem>  (50) 
nan

>  <First Approval>  (50) 
nan

>  <ATC Codes>  (50) 
nan

>  <Level 4 ATC Codes>  (50) 
nan

>  <Level 3 ATC Codes>  (50) 
nan

>  <Level 2 ATC Codes>  (50) 
nan

>  <Level 1 ATC Codes>  (50) 
nan

>  <Indication Class>  (50) 
nan

>  <Patent>  (50) 
nan

>  <Drug Type>  (50) 
7:Natural Product-derived

>  <Passes Rule of Five>  (50) 
True

>  <First In Class>  (50) 
False

>  <Chirality>  (50) 
Single Stereoisomer

>  <Prodrug>  (50) 
False

>  <Oral>  (50) 
False

>  <Parenteral>  (50) 
False

>  <Topical>  (50) 
False

>  <Black Box>  (50) 
False

>  <Availability Type>  (50) 
Unknown

>  <Withdrawn Year>  (50) 
nan

>  <Withdrawn Reason>  (50) 
nan

>  <Withdrawn Country>  (50) 
nan

>  <Withdrawn Class>  (50) 
nan

>  <SMILES>  (50) 
O=C(O)C1=CS[C@@H]2/C(=C\c3cn4c(n3)COCC4)C(=O)N12

>  <InChi Key>  (50) 
DMEYZPJEFHGESJ-CPWLGJMPSA-N

$$$$
CHEMBL3707219
     RDKit          2D

 23 23  0  0  0  0  0  0  0  0999 V2000
    5.2500    1.2990    0.0000 C   0  0  0  0  0  0  0  0  0  0  0  0
    3.7500    1.2990    0.0000 O   0  0  0  0  0  0  0  0  0  0  0  0
    3.0000    0.0000    0.0000 C   0  0  0  0  0  0  0  0  0  0  0  0
    3.7500   -1.2990    0.0000 O   0  0  0  0  0  0  0  0  0  0  0  0
    1.5000    0.0000    0.0000 C   0  0  0  0  0  0  0  0  0  0  0  0
    0.7500   -1.2990    0.0000 C   0  0  0  0  0  0  0  0  0  0  0  0
   -0.7500   -1.2990    0.0000 C   0  0  0  0  0  0  0  0  0  0  0  0
   -1.5000    0.0000    0.0000 C   0  0  0  0  0  0  0  0  0  0  0  0
   -3.0000    0.0000    0.0000 O   0  0  0  0  0  0  0  0  0  0  0  0
   -3.7500    1.2990    0.0000 C   0  0  0  0  0  0  0  0  0  0  0  0
   -3.0000    2.5981    0.0000 O   0  0  0  0  0  0  0  0  0  0  0  0
   -5.2500    1.2990    0.0000 C   0  0  0  0  0  0  0  0  0  0  0  0
   -6.0000    2.5981    0.0000 C   0  0  0  0  0  0  0  0  0  0  0  0
   -7.5000    2.5981    0.0000 C   0  0  0  0  0  0  0  0  0  0  0  0
   -8.2500    3.8971    0.0000 C   0  0  0  0  0  0  0  0  0  0  0  0
   -9.7500    3.8971    0.0000 C   0  0  0  0  0  0  0  0  0  0  0  0
  -10.5000    5.1962    0.0000 C   0  0  0  0  0  0  0  0  0  0  0  0
  -12.0000    5.1962    0.0000 C   0  0  0  0  0  0  0  0  0  0  0  0
  -12.7500    3.8971    0.0000 O   0  0  0  0  0  0  0  0  0  0  0  0
  -12.7500    6.4952    0.0000 N   0  0  0  0  0  0  0  0  0  0  0  0
  -14.2500    6.4952    0.0000 O   0  0  0  0  0  0  0  0  0  0  0  0
   -0.7500    1.2990    0.0000 C   0  0  0  0  0  0  0  0  0  0  0  0
    0.7500    1.2990    0.0000 C   0  0  0  0  0  0  0  0  0  0  0  0
  1  2  1  0
  2  3  1  0
  3  4  2  0
  3  5  1  0
  5  6  2  0
  6  7  1  0
  7  8  2  0
  8  9  1  0
  9 10  1  0
 10 11  2  0
 10 12  1  0
 12 13  1  0
 13 14  1  0
 14 15  1  0
 15 16  1  0
 16 17  1  0
 17 18  1  0
 18 19  1  0
 18 20  2  3
 20 21  1  0
  8 22  1  0
 22 23  2  0
 23  5  1  0
M  END
>  <Synonyms>  (51) 
REMETINOSTAT|SHP-141

>  <Research Codes>  (51) 
SHP-141

>  <Phase>  (51) 
1

>  <Applicants>  (51) 
nan

>  <USAN Stem>  (51) 
'-stat'

>  <USAN Year>  (51) 
2015.0

>  <USAN Stem Definition>  (51) 
enzyme inhibitors: inhibitors of histone deacetylase

>  <USAN Stem Substem>  (51) 
'-stat(-stat (-inostat))'

>  <First Approval>  (51) 
nan

>  <ATC Codes>  (51) 
nan

>  <Level 4 ATC Codes>  (51) 
nan

>  <Level 3 ATC Codes>  (51) 
nan

>  <Level 2 ATC Codes>  (51) 
nan

>  <Level 1 ATC Codes>  (51) 
nan

>  <Indication Class>  (51) 
nan

>  <Patent>  (51) 
nan

>  <Drug Type>  (51) 
1:Synthetic Small Molecule

>  <Passes Rule of Five>  (51) 
True

>  <First In Class>  (51) 
False

>  <Chirality>  (51) 
Achiral Molecule

>  <Prodrug>  (51) 
False

>  <Oral>  (51) 
False

>  <Parenteral>  (51) 
False

>  <Topical>  (51) 
False

>  <Black Box>  (51) 
False

>  <Availability Type>  (51) 
Unknown

>  <Withdrawn Year>  (51) 
nan

>  <Withdrawn Reason>  (51) 
nan

>  <Withdrawn Country>  (51) 
nan

>  <Withdrawn Class>  (51) 
nan

>  <SMILES>  (51) 
COC(=O)c1ccc(OC(=O)CCCCCCC(=O)NO)cc1

>  <InChi Key>  (51) 
XDZAHHULFQIBFE-UHFFFAOYSA-N

$$$$
CHEMBL3916929
     RDKit          2D

 29 32  0  0  0  0  0  0  0  0999 V2000
   -0.7500   -9.0933    0.0000 C   0  0  0  0  0  0  0  0  0  0  0  0
   -1.5000   -7.7942    0.0000 N   0  0  0  0  0  0  0  0  0  0  0  0
   -0.7500   -6.4952    0.0000 C   0  0  0  0  0  0  0  0  0  0  0  0
    0.7500   -6.4952    0.0000 O   0  0  0  0  0  0  0  0  0  0  0  0
   -1.5000   -5.1962    0.0000 C   0  0  0  0  0  0  0  0  0  0  0  0
   -0.7500   -3.8971    0.0000 C   0  0  0  0  0  0  0  0  0  0  0  0
    0.7500   -3.8971    0.0000 C   0  0  0  0  0  0  0  0  0  0  0  0
    1.5000   -2.5981    0.0000 O   0  0  0  0  0  0  0  0  0  0  0  0
    0.7500   -1.2990    0.0000 C   0  0  0  0  0  0  0  0  0  0  0  0
    1.5000    0.0000    0.0000 C   0  0  0  0  0  0  0  0  0  0  0  0
    0.7500    1.2990    0.0000 C   0  0  0  0  0  0  0  0  0  0  0  0
    1.5000    2.5981    0.0000 F   0  0  0  0  0  0  0  0  0  0  0  0
   -0.7500    1.2990    0.0000 C   0  0  0  0  0  0  0  0  0  0  0  0
   -1.5000    0.0000    0.0000 C   0  0  0  0  0  0  0  0  0  0  0  0
   -0.7500   -1.2990    0.0000 C   0  0  0  0  0  0  0  0  0  0  0  0
   -1.5000   -2.5981    0.0000 N   0  0  0  0  0  0  0  0  0  0  0  0
   -3.0000   -2.5981    0.0000 C   0  0  0  0  0  0  0  0  0  0  0  0
   -3.7500   -3.8971    0.0000 O   0  0  0  0  0  0  0  0  0  0  0  0
   -3.7500   -1.2990    0.0000 C   0  0  0  0  0  0  0  0  0  0  0  0
   -3.0000    0.0000    0.0000 C   0  0  0  0  0  0  0  0  0  0  0  0
   -3.7500    1.2990    0.0000 C   0  0  0  0  0  0  0  0  0  0  0  0
   -5.2500    1.2990    0.0000 C   0  0  0  0  0  0  0  0  0  0  0  0
   -6.0000    0.0000    0.0000 C   0  0  0  0  0  0  0  0  0  0  0  0
   -5.2500   -1.2990    0.0000 C   0  0  0  0  0  0  0  0  0  0  0  0
   -7.5000    0.0000    0.0000 N   0  0  0  0  0  0  0  0  0  0  0  0
   -8.2500    1.2990    0.0000 C   0  0  0  0  0  0  0  0  0  0  0  0
   -9.7500    1.2990    0.0000 O   0  0  0  0  0  0  0  0  0  0  0  0
   -7.5000    2.5981    0.0000 C   0  0  0  0  0  0  0  0  0  0  0  0
   -6.0000    2.5981    0.0000 O   0  0  0  0  0  0  0  0  0  0  0  0
  1  2  1  0
  2  3  1  0
  3  4  2  0
  3  5  1  0
  6  5  1  6
  6  7  1  0
  7  8  1  0
  8  9  1  0
  9 10  2  0
 10 11  1  0
 11 12  1  0
 11 13  2  0
 13 14  1  0
 14 15  2  0
 15 16  1  0
 16 17  1  0
 17 18  2  0
 17 19  1  0
 19 20  2  0
 20 21  1  0
 21 22  2  0
 22 23  1  0
 23 24  2  0
 23 25  1  0
 25 26  1  0
 26 27  2  0
 26 28  1  0
 28 29  1  0
 16  6  1  0
 24 19  1  0
 15  9  1  0
 29 22  1  0
M  END
>  <Synonyms>  (52) 
AZD-9977|AZD9977

>  <Research Codes>  (52) 
AZD-9977|AZD9977

>  <Phase>  (52) 
1

>  <Applicants>  (52) 
nan

>  <USAN Stem>  (52) 
nan

>  <USAN Year>  (52) 
nan

>  <USAN Stem Definition>  (52) 
nan

>  <USAN Stem Substem>  (52) 
nan

>  <First Approval>  (52) 
nan

>  <ATC Codes>  (52) 
nan

>  <Level 4 ATC Codes>  (52) 
nan

>  <Level 3 ATC Codes>  (52) 
nan

>  <Level 2 ATC Codes>  (52) 
nan

>  <Level 1 ATC Codes>  (52) 
nan

>  <Indication Class>  (52) 
nan

>  <Patent>  (52) 
nan

>  <Drug Type>  (52) 
1:Synthetic Small Molecule

>  <Passes Rule of Five>  (52) 
True

>  <First In Class>  (52) 
False

>  <Chirality>  (52) 
Single Stereoisomer

>  <Prodrug>  (52) 
False

>  <Oral>  (52) 
False

>  <Parenteral>  (52) 
False

>  <Topical>  (52) 
False

>  <Black Box>  (52) 
False

>  <Availability Type>  (52) 
Unknown

>  <Withdrawn Year>  (52) 
nan

>  <Withdrawn Reason>  (52) 
nan

>  <Withdrawn Country>  (52) 
nan

>  <Withdrawn Class>  (52) 
nan

>  <SMILES>  (52) 
CNC(=O)C[C@H]1COc2cc(F)ccc2N1C(=O)c1ccc2c(c1)NC(=O)CO2

>  <InChi Key>  (52) 
MBKYLPOPYYLTNW-ZDUSSCGKSA-N

$$$$
CHEMBL3950712
     RDKit          2D

 28 30  0  0  0  0  0  0  0  0999 V2000
    3.7500   -1.2990    0.0000 C   0  0  0  0  0  0  0  0  0  0  0  0
    3.0000    0.0000    0.0000 O   0  0  0  0  0  0  0  0  0  0  0  0
    1.5000    0.0000    0.0000 C   0  0  0  0  0  0  0  0  0  0  0  0
    0.7500   -1.2990    0.0000 C   0  0  0  0  0  0  0  0  0  0  0  0
   -0.7500   -1.2990    0.0000 C   0  0  0  0  0  0  0  0  0  0  0  0
   -1.5000   -2.5981    0.0000 N   0  0  0  0  0  0  0  0  0  0  0  0
   -1.5000    0.0000    0.0000 C   0  0  0  0  0  0  0  0  0  0  0  0
   -3.0000    0.0000    0.0000 Cl  0  0  0  0  0  0  0  0  0  0  0  0
   -0.7500    1.2990    0.0000 C   0  0  0  0  0  0  0  0  0  0  0  0
    0.7500    1.2990    0.0000 C   0  0  0  0  0  0  0  0  0  0  0  0
    1.5000    2.5981    0.0000 C   0  0  0  0  0  0  0  0  0  0  0  0
    3.0000    2.5981    0.0000 O   0  0  0  0  0  0  0  0  0  0  0  0
    0.7500    3.8971    0.0000 N   0  0  0  0  0  0  0  0  0  0  0  0
    1.5000    5.1962    0.0000 C   0  0  0  0  0  0  0  0  0  0  0  0
    0.7500    6.4952    0.0000 C   0  0  0  0  0  0  0  0  0  0  0  0
    1.5000    7.7942    0.0000 C   0  0  0  0  0  0  0  0  0  0  0  0
    0.7500    9.0933    0.0000 C   0  0  0  0  0  0  0  0  0  0  0  0
   -0.7500    9.0933    0.0000 N   0  0  0  0  0  0  0  0  0  0  0  0
   -1.5000   10.3923    0.0000 C   0  0  0  0  0  0  0  0  0  0  0  0
   -0.7500   11.6913    0.0000 C   0  0  0  0  0  0  0  0  0  0  0  0
   -1.5000   12.9904    0.0000 C   0  0  0  0  0  0  0  0  0  0  0  0
   -0.7500   14.2894    0.0000 N   0  0  0  0  0  0  0  0  0  0  0  0
   -1.3601   15.6597    0.0000 C   0  0  0  0  0  0  0  0  0  0  0  0
   -0.2454   16.6634    0.0000 C   0  0  0  0  0  0  0  0  0  0  0  0
    1.0537   15.9134    0.0000 N   0  0  0  0  0  0  0  0  0  0  0  0
    0.7418   14.4462    0.0000 N   0  0  0  0  0  0  0  0  0  0  0  0
   -1.5000    7.7942    0.0000 C   0  0  0  0  0  0  0  0  0  0  0  0
   -0.7500    6.4952    0.0000 C   0  0  0  0  0  0  0  0  0  0  0  0
  1  2  1  0
  2  3  1  0
  3  4  2  0
  4  5  1  0
  5  6  1  0
  5  7  2  0
  7  8  1  0
  7  9  1  0
  9 10  2  0
 10 11  1  0
 11 12  2  0
 11 13  1  0
 13 14  1  0
 14 15  1  0
 15 16  1  0
 16 17  1  0
 17 18  1  0
 18 19  1  0
 19 20  1  0
 20 21  1  0
 21 22  1  0
 22 23  1  0
 23 24  2  0
 24 25  1  0
 25 26  2  0
 18 27  1  0
 27 28  1  0
 10  3  1  0
 28 15  1  0
 26 22  1  0
M  END
>  <Synonyms>  (53) 
DA-6886

>  <Research Codes>  (53) 
nan

>  <Phase>  (53) 
1

>  <Applicants>  (53) 
nan

>  <USAN Stem>  (53) 
nan

>  <USAN Year>  (53) 
nan

>  <USAN Stem Definition>  (53) 
nan

>  <USAN Stem Substem>  (53) 
nan

>  <First Approval>  (53) 
nan

>  <ATC Codes>  (53) 
nan

>  <Level 4 ATC Codes>  (53) 
nan

>  <Level 3 ATC Codes>  (53) 
nan

>  <Level 2 ATC Codes>  (53) 
nan

>  <Level 1 ATC Codes>  (53) 
nan

>  <Indication Class>  (53) 
nan

>  <Patent>  (53) 
nan

>  <Drug Type>  (53) 
1:Synthetic Small Molecule

>  <Passes Rule of Five>  (53) 
True

>  <First In Class>  (53) 
False

>  <Chirality>  (53) 
Achiral Molecule

>  <Prodrug>  (53) 
False

>  <Oral>  (53) 
False

>  <Parenteral>  (53) 
False

>  <Topical>  (53) 
False

>  <Black Box>  (53) 
False

>  <Availability Type>  (53) 
Unknown

>  <Withdrawn Year>  (53) 
nan

>  <Withdrawn Reason>  (53) 
nan

>  <Withdrawn Country>  (53) 
nan

>  <Withdrawn Class>  (53) 
nan

>  <SMILES>  (53) 
COc1cc(N)c(Cl)cc1C(=O)NCC1CCN(CCCn2ccnn2)CC1

>  <InChi Key>  (53) 
AULLTYAISZREAX-UHFFFAOYSA-N

$$$$
CHEMBL3989941
     RDKit          2D

 27 28  0  0  0  0  0  0  0  0999 V2000
   -2.6401   -3.1891    0.0000 C   0  0  0  0  0  0  0  0  0  0  0  0
   -1.2135   -2.7256    0.0000 N   0  0  0  0  0  0  0  0  0  0  0  0
   -0.0000   -3.6073    0.0000 C   0  0  0  0  0  0  0  0  0  0  0  0
   -0.0000   -5.1073    0.0000 C   0  0  0  0  0  0  0  0  0  0  0  0
   -1.2990   -5.8573    0.0000 C   0  0  0  0  0  0  0  0  0  0  0  0
   -1.2990   -7.3573    0.0000 C   0  0  0  0  0  0  0  0  0  0  0  0
   -2.5981   -8.1073    0.0000 C   0  0  0  0  0  0  0  0  0  0  0  0
   -2.5981   -9.6073    0.0000 C   0  0  0  0  0  0  0  0  0  0  0  0
   -3.8971  -10.3573    0.0000 C   0  0  0  0  0  0  0  0  0  0  0  0
   -3.8971  -11.8573    0.0000 C   0  0  0  0  0  0  0  0  0  0  0  0
   -2.5981  -12.6073    0.0000 O   0  0  0  0  0  0  0  0  0  0  0  0
   -5.1962  -12.6073    0.0000 N   0  0  0  0  0  0  0  0  0  0  0  0
   -5.1962  -14.1073    0.0000 O   0  0  0  0  0  0  0  0  0  0  0  0
    1.2135   -2.7256    0.0000 N   0  0  0  0  0  0  0  0  0  0  0  0
    0.7500   -1.2990    0.0000 C   0  0  0  0  0  0  0  0  0  0  0  0
    1.5000    0.0000    0.0000 C   0  0  0  0  0  0  0  0  0  0  0  0
    0.7500    1.2990    0.0000 C   0  0  0  0  0  0  0  0  0  0  0  0
    1.5000    2.5981    0.0000 N   0  0  0  0  0  0  0  0  0  0  0  0
    3.0000    2.5981    0.0000 C   0  0  0  0  0  0  0  0  0  0  0  0
    3.7500    3.8971    0.0000 C   0  0  0  0  0  0  0  0  0  0  0  0
    5.2500    3.8971    0.0000 Cl  0  0  0  0  0  0  0  0  0  0  0  0
    0.7500    3.8971    0.0000 C   0  0  0  0  0  0  0  0  0  0  0  0
    1.5000    5.1962    0.0000 C   0  0  0  0  0  0  0  0  0  0  0  0
    0.7500    6.4952    0.0000 Cl  0  0  0  0  0  0  0  0  0  0  0  0
   -0.7500    1.2990    0.0000 C   0  0  0  0  0  0  0  0  0  0  0  0
   -1.5000    0.0000    0.0000 C   0  0  0  0  0  0  0  0  0  0  0  0
   -0.7500   -1.2990    0.0000 C   0  0  0  0  0  0  0  0  0  0  0  0
  1  2  1  0
  2  3  1  0
  3  4  1  0
  4  5  1  0
  5  6  1  0
  6  7  1  0
  7  8  1  0
  8  9  1  0
  9 10  1  0
 10 11  1  0
 10 12  2  3
 12 13  1  0
  3 14  2  0
 14 15  1  0
 15 16  2  0
 16 17  1  0
 17 18  1  0
 18 19  1  0
 19 20  1  0
 20 21  1  0
 18 22  1  0
 22 23  1  0
 23 24  1  0
 17 25  2  0
 25 26  1  0
 26 27  2  0
 27  2  1  0
 27 15  1  0
M  END
>  <Synonyms>  (54) 
EDO-S 101|EDO-S-101|EDO-S101|TINOSTAMUSTINE

>  <Research Codes>  (54) 
EDO-S 101|EDO-S-101|EDO-S101

>  <Phase>  (54) 
1

>  <Applicants>  (54) 
nan

>  <USAN Stem>  (54) 
'-mustine'

>  <USAN Year>  (54) 
2016.0

>  <USAN Stem Definition>  (54) 
antineoplastics (chloroethylamine derivatives)

>  <USAN Stem Substem>  (54) 
'-mustine(-mustine)'

>  <First Approval>  (54) 
nan

>  <ATC Codes>  (54) 
nan

>  <Level 4 ATC Codes>  (54) 
nan

>  <Level 3 ATC Codes>  (54) 
nan

>  <Level 2 ATC Codes>  (54) 
nan

>  <Level 1 ATC Codes>  (54) 
nan

>  <Indication Class>  (54) 
nan

>  <Patent>  (54) 
nan

>  <Drug Type>  (54) 
1:Synthetic Small Molecule

>  <Passes Rule of Five>  (54) 
True

>  <First In Class>  (54) 
False

>  <Chirality>  (54) 
Achiral Molecule

>  <Prodrug>  (54) 
False

>  <Oral>  (54) 
False

>  <Parenteral>  (54) 
False

>  <Topical>  (54) 
False

>  <Black Box>  (54) 
False

>  <Availability Type>  (54) 
Unknown

>  <Withdrawn Year>  (54) 
nan

>  <Withdrawn Reason>  (54) 
nan

>  <Withdrawn Country>  (54) 
nan

>  <Withdrawn Class>  (54) 
nan

>  <SMILES>  (54) 
Cn1c(CCCCCCC(=O)NO)nc2cc(N(CCCl)CCCl)ccc21

>  <InChi Key>  (54) 
GISXTRIGVCKQBX-UHFFFAOYSA-N

$$$$
CHEMBL3989959
     RDKit          2D

 21 22  0  0  0  0  0  0  0  0999 V2000
    8.2500   -3.8971    0.0000 N   0  0  0  0  0  0  0  0  0  0  0  0
    7.5000   -2.5981    0.0000 C   0  0  0  0  0  0  0  0  0  0  0  0
    6.0000   -2.5981    0.0000 C   0  0  0  0  0  0  0  0  0  0  0  0
    5.2500   -1.2990    0.0000 O   0  0  0  0  0  0  0  0  0  0  0  0
    3.7500   -1.2990    0.0000 N   0  0  0  0  0  0  0  0  0  0  0  0
    3.0000    0.0000    0.0000 C   0  0  0  0  0  0  0  0  0  0  0  0
    3.7500    1.2990    0.0000 O   0  0  0  0  0  0  0  0  0  0  0  0
    1.5000    0.0000    0.0000 C   0  0  0  0  0  0  0  0  0  0  0  0
    0.7500   -1.2990    0.0000 C   0  0  0  0  0  0  0  0  0  0  0  0
   -0.7500   -1.2990    0.0000 C   0  0  0  0  0  0  0  0  0  0  0  0
   -1.5000    0.0000    0.0000 C   0  0  0  0  0  0  0  0  0  0  0  0
   -0.7500    1.2990    0.0000 C   0  0  0  0  0  0  0  0  0  0  0  0
    0.7500    1.2990    0.0000 N   0  0  0  0  0  0  0  0  0  0  0  0
   -0.3647    2.3027    0.0000 C   0  0  0  0  0  0  0  0  0  0  0  0
   -0.2079    3.7945    0.0000 O   0  0  0  0  0  0  0  0  0  0  0  0
   -1.6638    1.5527    0.0000 N   0  0  0  0  0  0  0  0  0  0  0  0
   -3.0341    2.1628    0.0000 O   0  0  0  0  0  0  0  0  0  0  0  0
   -4.2476    1.2812    0.0000 S   0  0  0  0  0  0  0  0  0  0  0  0
   -3.3659    0.0676    0.0000 O   0  0  0  0  0  0  0  0  0  0  0  0
   -5.1293    2.4947    0.0000 O   0  0  0  0  0  0  0  0  0  0  0  0
   -5.4611    0.3995    0.0000 O   0  0  0  0  0  0  0  0  0  0  0  0
  1  2  1  0
  2  3  1  0
  3  4  1  0
  4  5  1  0
  5  6  1  0
  6  7  2  0
  6  8  1  0
  8  9  1  0
  9 10  1  0
 11 10  1  1
 11 12  1  0
 12 13  1  0
 13 14  1  0
 14 15  2  0
 14 16  1  0
 16 17  1  0
 17 18  1  0
 18 19  2  0
 18 20  2  0
 18 21  1  0
 13  8  1  0
 16 11  1  0
M  END
>  <Synonyms>  (55) 
FPI-1459|NACUBACTAM|RG-6080|RG6080|RO-7079901|RO7079901

>  <Research Codes>  (55) 
FPI-1459|RG-6080|RG6080|RO-7079901|RO7079901

>  <Phase>  (55) 
1

>  <Applicants>  (55) 
nan

>  <USAN Stem>  (55) 
'-bactam'

>  <USAN Year>  (55) 
2017.0

>  <USAN Stem Definition>  (55) 
beta-lactamase inhibitors

>  <USAN Stem Substem>  (55) 
'-bactam(-bactam)'

>  <First Approval>  (55) 
nan

>  <ATC Codes>  (55) 
nan

>  <Level 4 ATC Codes>  (55) 
nan

>  <Level 3 ATC Codes>  (55) 
nan

>  <Level 2 ATC Codes>  (55) 
nan

>  <Level 1 ATC Codes>  (55) 
nan

>  <Indication Class>  (55) 
nan

>  <Patent>  (55) 
nan

>  <Drug Type>  (55) 
1:Synthetic Small Molecule

>  <Passes Rule of Five>  (55) 
True

>  <First In Class>  (55) 
False

>  <Chirality>  (55) 
Single Stereoisomer

>  <Prodrug>  (55) 
False

>  <Oral>  (55) 
False

>  <Parenteral>  (55) 
False

>  <Topical>  (55) 
False

>  <Black Box>  (55) 
False

>  <Availability Type>  (55) 
Unknown

>  <Withdrawn Year>  (55) 
nan

>  <Withdrawn Reason>  (55) 
nan

>  <Withdrawn Country>  (55) 
nan

>  <Withdrawn Class>  (55) 
nan

>  <SMILES>  (55) 
NCCONC(=O)[C@@H]1CC[C@@H]2CN1C(=O)N2OS(=O)(=O)O

>  <InChi Key>  (55) 
RSBPYSTVZQAADE-ULUSZKPHSA-N

$$$$
CHEMBL3545010
     RDKit          2D

 19 20  0  0  0  0  0  0  0  0999 V2000
    3.7500   -1.2990    0.0000 C   0  0  0  0  0  0  0  0  0  0  0  0
    3.0000    0.0000    0.0000 C   0  0  0  0  0  0  0  0  0  0  0  0
    1.5000    0.0000    0.0000 N   0  0  0  0  0  0  0  0  0  0  0  0
    0.7500   -1.2990    0.0000 C   0  0  0  0  0  0  0  0  0  0  0  0
   -0.7500   -1.2990    0.0000 C   0  0  0  0  0  0  0  0  0  0  0  0
   -1.5000    0.0000    0.0000 C   0  0  0  0  0  0  0  0  0  0  0  0
   -3.0000    0.0000    0.0000 C   0  0  0  0  0  0  0  0  0  0  0  0
   -3.7500    1.2990    0.0000 C   0  0  0  0  0  0  0  0  0  0  0  0
   -5.2500    1.2990    0.0000 C   0  0  0  0  0  0  0  0  0  0  0  0
   -6.0000    0.0000    0.0000 C   0  0  0  0  0  0  0  0  0  0  0  0
   -5.2500   -1.2990    0.0000 C   0  0  0  0  0  0  0  0  0  0  0  0
   -6.0000   -2.5981    0.0000 S   0  0  0  0  0  0  0  0  0  0  0  0
   -6.7500   -3.8971    0.0000 C   0  0  0  0  0  0  0  0  0  0  0  0
   -4.7010   -3.3481    0.0000 O   0  0  0  0  0  0  0  0  0  0  0  0
   -7.2990   -1.8481    0.0000 O   0  0  0  0  0  0  0  0  0  0  0  0
   -3.7500   -1.2990    0.0000 C   0  0  0  0  0  0  0  0  0  0  0  0
   -3.0000   -2.5981    0.0000 F   0  0  0  0  0  0  0  0  0  0  0  0
   -0.7500    1.2990    0.0000 C   0  0  0  0  0  0  0  0  0  0  0  0
    0.7500    1.2990    0.0000 C   0  0  0  0  0  0  0  0  0  0  0  0
  1  2  1  0
  2  3  1  0
  3  4  1  0
  4  5  1  0
  5  6  1  0
  6  7  1  0
  7  8  2  0
  8  9  1  0
  9 10  2  0
 10 11  1  0
 11 12  1  0
 12 13  1  0
 12 14  2  0
 12 15  2  0
 11 16  2  0
 16 17  1  0
  6 18  1  0
 18 19  1  0
 19  3  1  0
 16  7  1  0
M  END
>  <Synonyms>  (56) 
ACR325|ORDOPIDINE|Ordopidine

>  <Research Codes>  (56) 
ACR-325

>  <Phase>  (56) 
1

>  <Applicants>  (56) 
nan

>  <USAN Stem>  (56) 
'-dopidine'

>  <USAN Year>  (56) 
nan

>  <USAN Stem Definition>  (56) 
dopamine D2 receptor modulator

>  <USAN Stem Substem>  (56) 
'-dopidine(-dopidine)'

>  <First Approval>  (56) 
nan

>  <ATC Codes>  (56) 
nan

>  <Level 4 ATC Codes>  (56) 
nan

>  <Level 3 ATC Codes>  (56) 
nan

>  <Level 2 ATC Codes>  (56) 
nan

>  <Level 1 ATC Codes>  (56) 
nan

>  <Indication Class>  (56) 
nan

>  <Patent>  (56) 
nan

>  <Drug Type>  (56) 
1:Synthetic Small Molecule

>  <Passes Rule of Five>  (56) 
True

>  <First In Class>  (56) 
False

>  <Chirality>  (56) 
Achiral Molecule

>  <Prodrug>  (56) 
False

>  <Oral>  (56) 
False

>  <Parenteral>  (56) 
False

>  <Topical>  (56) 
False

>  <Black Box>  (56) 
False

>  <Availability Type>  (56) 
Unknown

>  <Withdrawn Year>  (56) 
nan

>  <Withdrawn Reason>  (56) 
nan

>  <Withdrawn Country>  (56) 
nan

>  <Withdrawn Class>  (56) 
nan

>  <SMILES>  (56) 
CCN1CCC(c2cccc(S(C)(=O)=O)c2F)CC1

>  <InChi Key>  (56) 
UKUPJASJNQDHPH-UHFFFAOYSA-N

$$$$
CHEMBL3989791
     RDKit          2D

 18 20  0  0  0  0  0  0  0  0999 V2000
    3.0000    0.0000    0.0000 C   0  0  0  0  0  0  0  0  0  0  0  0
    1.5000    0.0000    0.0000 C   0  0  0  0  0  0  0  0  0  0  0  0
    0.7500   -1.2990    0.0000 C   0  0  0  0  0  0  0  0  0  0  0  0
   -0.7500   -1.2990    0.0000 C   0  0  0  0  0  0  0  0  0  0  0  0
   -1.5000    0.0000    0.0000 C   0  0  0  0  0  0  0  0  0  0  0  0
   -0.7500    1.2990    0.0000 C   0  0  0  0  0  0  0  0  0  0  0  0
    0.7500    1.2990    0.0000 C   0  0  0  0  0  0  0  0  0  0  0  0
    0.4895    2.7762    0.0000 C   0  0  0  0  0  0  0  0  0  0  0  0
   -0.8587    3.4338    0.0000 C   0  0  0  0  0  0  0  0  0  0  0  0
   -0.6499    4.9192    0.0000 C   0  0  0  0  0  0  0  0  0  0  0  0
    0.8273    5.1797    0.0000 C   0  0  0  0  0  0  0  0  0  0  0  0
    1.5315    3.8553    0.0000 S   0  0  0  0  0  0  0  0  0  0  0  0
    2.1595    1.8121    0.0000 N   0  0  0  0  0  0  0  0  0  0  0  0
    3.3086    0.8479    0.0000 C   0  0  0  0  0  0  0  0  0  0  0  0
    4.7181    1.3609    0.0000 C   0  0  0  0  0  0  0  0  0  0  0  0
    4.9786    2.8381    0.0000 C   0  0  0  0  0  0  0  0  0  0  0  0
    3.8296    3.8023    0.0000 C   0  0  0  0  0  0  0  0  0  0  0  0
    2.4200    3.2893    0.0000 C   0  0  0  0  0  0  0  0  0  0  0  0
  1  2  1  0
  2  3  1  0
  3  4  1  0
  4  5  1  0
  5  6  1  0
  6  7  1  0
  7  8  1  0
  8  9  2  0
  9 10  1  0
 10 11  2  0
 11 12  1  0
  7 13  1  0
 13 14  1  0
 14 15  1  0
 15 16  1  0
 16 17  1  0
 17 18  1  0
  7  2  1  0
 12  8  1  0
 18 13  1  0
M  END
>  <Synonyms>  (57) 
GACYCLIDINE|NST-001

>  <Research Codes>  (57) 
NST-001

>  <Phase>  (57) 
1

>  <Applicants>  (57) 
nan

>  <USAN Stem>  (57) 
'-clidine'

>  <USAN Year>  (57) 
nan

>  <USAN Stem Definition>  (57) 
muscarinic receptor agonists

>  <USAN Stem Substem>  (57) 
'-clidine(-clidine)'

>  <First Approval>  (57) 
nan

>  <ATC Codes>  (57) 
nan

>  <Level 4 ATC Codes>  (57) 
nan

>  <Level 3 ATC Codes>  (57) 
nan

>  <Level 2 ATC Codes>  (57) 
nan

>  <Level 1 ATC Codes>  (57) 
nan

>  <Indication Class>  (57) 
nan

>  <Patent>  (57) 
nan

>  <Drug Type>  (57) 
1:Synthetic Small Molecule

>  <Passes Rule of Five>  (57) 
True

>  <First In Class>  (57) 
False

>  <Chirality>  (57) 
Racemic Mixture

>  <Prodrug>  (57) 
False

>  <Oral>  (57) 
False

>  <Parenteral>  (57) 
False

>  <Topical>  (57) 
False

>  <Black Box>  (57) 
False

>  <Availability Type>  (57) 
Unknown

>  <Withdrawn Year>  (57) 
nan

>  <Withdrawn Reason>  (57) 
nan

>  <Withdrawn Country>  (57) 
nan

>  <Withdrawn Class>  (57) 
nan

>  <SMILES>  (57) 
CC1CCCCC1(c1cccs1)N1CCCCC1

>  <InChi Key>  (57) 
DKFAAPPUYWQKKF-UHFFFAOYSA-N

$$$$
CHEMBL1230122
     RDKit          2D

 28 31  0  0  0  0  0  0  0  0999 V2000
   -3.0000   -2.5981    0.0000 C   0  0  0  0  0  0  0  0  0  0  0  0
   -1.5000   -2.5981    0.0000 N   0  0  0  0  0  0  0  0  0  0  0  0
   -0.7500   -3.8971    0.0000 C   0  0  0  0  0  0  0  0  0  0  0  0
   -1.5000   -5.1962    0.0000 O   0  0  0  0  0  0  0  0  0  0  0  0
    0.7500   -3.8971    0.0000 C   0  0  0  0  0  0  0  0  0  0  0  0
    1.5000   -5.1962    0.0000 O   0  0  0  0  0  0  0  0  0  0  0  0
    3.0000   -5.1962    0.0000 C   0  0  0  0  0  0  0  0  0  0  0  0
    3.7500   -6.4952    0.0000 C   0  0  0  0  0  0  0  0  0  0  0  0
    5.2500   -6.4952    0.0000 C   0  0  0  0  0  0  0  0  0  0  0  0
    6.0000   -5.1962    0.0000 C   0  0  0  0  0  0  0  0  0  0  0  0
    7.5000   -5.1962    0.0000 F   0  0  0  0  0  0  0  0  0  0  0  0
    5.2500   -3.8971    0.0000 C   0  0  0  0  0  0  0  0  0  0  0  0
    3.7500   -3.8971    0.0000 C   0  0  0  0  0  0  0  0  0  0  0  0
    3.0000   -2.5981    0.0000 F   0  0  0  0  0  0  0  0  0  0  0  0
    1.5000   -2.5981    0.0000 C   0  0  0  0  0  0  0  0  0  0  0  0
    0.7500   -1.2990    0.0000 C   0  0  0  0  0  0  0  0  0  0  0  0
    1.5000    0.0000    0.0000 C   0  0  0  0  0  0  0  0  0  0  0  0
    0.7500    1.2990    0.0000 N   0  0  0  0  0  0  0  0  0  0  0  0
   -0.7500    1.2990    0.0000 C   0  0  0  0  0  0  0  0  0  0  0  0
   -1.5000    2.5981    0.0000 N   0  0  0  0  0  0  0  0  0  0  0  0
   -0.7500    3.8971    0.0000 C   0  0  0  0  0  0  0  0  0  0  0  0
    0.7500    3.8971    0.0000 C   0  0  0  0  0  0  0  0  0  0  0  0
    1.5000    5.1962    0.0000 C   0  0  0  0  0  0  0  0  0  0  0  0
    0.7500    6.4952    0.0000 O   0  0  0  0  0  0  0  0  0  0  0  0
   -0.7500    6.4952    0.0000 C   0  0  0  0  0  0  0  0  0  0  0  0
   -1.5000    5.1962    0.0000 C   0  0  0  0  0  0  0  0  0  0  0  0
   -1.5000    0.0000    0.0000 N   0  0  0  0  0  0  0  0  0  0  0  0
   -0.7500   -1.2990    0.0000 C   0  0  0  0  0  0  0  0  0  0  0  0
  1  2  1  0
  2  3  1  0
  3  4  2  0
  3  5  1  0
  5  6  1  0
  6  7  1  0
  7  8  2  0
  8  9  1  0
  9 10  2  0
 10 11  1  0
 10 12  1  0
 12 13  2  0
 13 14  1  0
  5 15  2  0
 15 16  1  0
 16 17  2  0
 17 18  1  0
 18 19  1  0
 19 20  2  3
 20 21  1  0
 21 22  1  0
 22 23  1  0
 23 24  1  0
 24 25  1  0
 25 26  1  0
 19 27  1  0
 27 28  2  0
 28  2  1  0
 13  7  1  0
 28 16  1  0
 26 21  1  0
M  END
>  <Synonyms>  (58) 
nan

>  <Research Codes>  (58) 
nan

>  <Phase>  (58) 
1

>  <Applicants>  (58) 
nan

>  <USAN Stem>  (58) 
nan

>  <USAN Year>  (58) 
nan

>  <USAN Stem Definition>  (58) 
nan

>  <USAN Stem Substem>  (58) 
nan

>  <First Approval>  (58) 
nan

>  <ATC Codes>  (58) 
nan

>  <Level 4 ATC Codes>  (58) 
nan

>  <Level 3 ATC Codes>  (58) 
nan

>  <Level 2 ATC Codes>  (58) 
nan

>  <Level 1 ATC Codes>  (58) 
nan

>  <Indication Class>  (58) 
nan

>  <Patent>  (58) 
nan

>  <Drug Type>  (58) 
1:Synthetic Small Molecule

>  <Passes Rule of Five>  (58) 
True

>  <First In Class>  (58) 
False

>  <Chirality>  (58) 
Achiral Molecule

>  <Prodrug>  (58) 
False

>  <Oral>  (58) 
False

>  <Parenteral>  (58) 
False

>  <Topical>  (58) 
False

>  <Black Box>  (58) 
False

>  <Availability Type>  (58) 
Unknown

>  <Withdrawn Year>  (58) 
nan

>  <Withdrawn Reason>  (58) 
nan

>  <Withdrawn Country>  (58) 
nan

>  <Withdrawn Class>  (58) 
nan

>  <SMILES>  (58) 
Cn1c(=O)c(Oc2ccc(F)cc2F)cc2cnc(NC3CCOCC3)nc21

>  <InChi Key>  (58) 
KKKRKRMVJRHDMG-UHFFFAOYSA-N

$$$$
CHEMBL3039733
     RDKit          2D

 28 31  0  0  0  0  0  0  0  0999 V2000
   -3.0000   -7.7942    0.0000 C   0  0  0  0  0  0  0  0  0  0  0  0
   -2.2500   -6.4952    0.0000 C   0  0  0  0  0  0  0  0  0  0  0  0
   -0.7500   -6.4952    0.0000 C   0  0  0  0  0  0  0  0  0  0  0  0
   -0.0000   -5.1962    0.0000 N   0  0  0  0  0  0  0  0  0  0  0  0
    1.5000   -5.1962    0.0000 C   0  0  0  0  0  0  0  0  0  0  0  0
    2.2500   -3.8971    0.0000 C   0  0  0  0  0  0  0  0  0  0  0  0
    1.5000   -2.5981    0.0000 C   0  0  0  0  0  0  0  0  0  0  0  0
    3.0000   -2.5981    0.0000 C   0  0  0  0  0  0  0  0  0  0  0  0
    0.7500   -1.2990    0.0000 C   0  0  0  0  0  0  0  0  0  0  0  0
    1.5000    0.0000    0.0000 C   0  0  0  0  0  0  0  0  0  0  0  0
    0.7500    1.2990    0.0000 C   0  0  0  0  0  0  0  0  0  0  0  0
   -0.7500    1.2990    0.0000 C   0  0  0  0  0  0  0  0  0  0  0  0
   -1.5000    0.0000    0.0000 C   0  0  0  0  0  0  0  0  0  0  0  0
   -3.0000    0.0000    0.0000 O   0  0  0  0  0  0  0  0  0  0  0  0
   -0.7500   -1.2990    0.0000 C   0  0  0  0  0  0  0  0  0  0  0  0
   -1.5000   -2.5981    0.0000 C   0  0  0  0  0  0  0  0  0  0  0  0
   -0.7500   -3.8971    0.0000 C   0  0  0  0  0  0  0  0  0  0  0  0
    0.7500   -3.8971    0.0000 C   0  0  0  0  0  0  0  0  0  0  0  0
    1.6565   -4.5086    0.0000 C   0  0  0  0  0  0  0  0  0  0  0  0
    0.8263   -4.9879    0.0000 C   0  0  0  0  0  0  0  0  0  0  0  0
   -3.0000   -5.1962    0.0000 O   0  0  0  0  0  0  0  0  0  0  0  0
   -4.5000   -5.1962    0.0000 C   0  0  0  0  0  0  0  0  0  0  0  0
   -5.2500   -3.8971    0.0000 C   0  0  0  0  0  0  0  0  0  0  0  0
   -4.5000   -2.5981    0.0000 C   0  0  0  0  0  0  0  0  0  0  0  0
   -5.2500   -1.2990    0.0000 C   0  0  0  0  0  0  0  0  0  0  0  0
   -6.7500   -1.2990    0.0000 C   0  0  0  0  0  0  0  0  0  0  0  0
   -7.5000   -2.5981    0.0000 C   0  0  0  0  0  0  0  0  0  0  0  0
   -6.7500   -3.8971    0.0000 C   0  0  0  0  0  0  0  0  0  0  0  0
  2  1  1  6
  2  3  1  0
  3  4  1  0
  4  5  1  0
  5  6  1  0
  6  7  1  0
  7  8  1  1
  7  9  1  0
  9 10  2  0
 10 11  1  0
 11 12  2  0
 12 13  1  0
 13 14  1  0
 13 15  2  0
 15 16  1  0
 17 16  1  6
 17 18  1  0
 18 19  1  0
 18 20  1  0
  2 21  1  0
 21 22  1  0
 22 23  1  0
 23 24  2  0
 24 25  1  0
 25 26  2  0
 26 27  1  0
 27 28  2  0
 17  4  1  0
 28 23  1  0
 18  7  1  0
 15  9  1  0
M  END
>  <Synonyms>  (59) 
CROBENETINE

>  <Research Codes>  (59) 
nan

>  <Phase>  (59) 
1

>  <Applicants>  (59) 
nan

>  <USAN Stem>  (59) 
nan

>  <USAN Year>  (59) 
nan

>  <USAN Stem Definition>  (59) 
nan

>  <USAN Stem Substem>  (59) 
nan

>  <First Approval>  (59) 
nan

>  <ATC Codes>  (59) 
nan

>  <Level 4 ATC Codes>  (59) 
nan

>  <Level 3 ATC Codes>  (59) 
nan

>  <Level 2 ATC Codes>  (59) 
nan

>  <Level 1 ATC Codes>  (59) 
nan

>  <Indication Class>  (59) 
nan

>  <Patent>  (59) 
nan

>  <Drug Type>  (59) 
1:Synthetic Small Molecule

>  <Passes Rule of Five>  (59) 
True

>  <First In Class>  (59) 
False

>  <Chirality>  (59) 
Single Stereoisomer

>  <Prodrug>  (59) 
False

>  <Oral>  (59) 
False

>  <Parenteral>  (59) 
False

>  <Topical>  (59) 
False

>  <Black Box>  (59) 
False

>  <Availability Type>  (59) 
Unknown

>  <Withdrawn Year>  (59) 
nan

>  <Withdrawn Reason>  (59) 
nan

>  <Withdrawn Country>  (59) 
nan

>  <Withdrawn Class>  (59) 
nan

>  <SMILES>  (59) 
C[C@@H](CN1CC[C@@]2(C)c3cccc(O)c3C[C@@H]1C2(C)C)OCc1ccccc1

>  <InChi Key>  (59) 
VCCBCXVFGHTDQN-UODBTFMRSA-N

$$$$
CHEMBL398891
     RDKit          2D

 24 25  0  0  0  0  0  0  0  0999 V2000
    5.2500   -1.2990    0.0000 C   0  0  0  0  0  0  0  0  0  0  0  0
    3.7500   -1.2990    0.0000 C   0  0  0  0  0  0  0  0  0  0  0  0
    3.0000    0.0000    0.0000 O   0  0  0  0  0  0  0  0  0  0  0  0
    1.5000    0.0000    0.0000 C   0  0  0  0  0  0  0  0  0  0  0  0
    0.7500   -1.2990    0.0000 C   0  0  0  0  0  0  0  0  0  0  0  0
   -0.7500   -1.2990    0.0000 C   0  0  0  0  0  0  0  0  0  0  0  0
   -1.5000    0.0000    0.0000 C   0  0  0  0  0  0  0  0  0  0  0  0
   -3.0000    0.0000    0.0000 F   0  0  0  0  0  0  0  0  0  0  0  0
   -0.7500    1.2990    0.0000 C   0  0  0  0  0  0  0  0  0  0  0  0
   -1.5000    2.5981    0.0000 C   0  0  0  0  0  0  0  0  0  0  0  0
   -0.7500    3.8971    0.0000 C   0  0  0  0  0  0  0  0  0  0  0  0
   -1.5000    5.1962    0.0000 N   0  0  0  0  0  0  0  0  0  0  0  0
   -0.7500    6.4952    0.0000 C   0  0  0  0  0  0  0  0  0  0  0  0
    0.7500    6.4952    0.0000 S   0  0  0  0  0  0  0  0  0  0  0  0
   -1.5000    7.7942    0.0000 N   0  0  0  0  0  0  0  0  0  0  0  0
   -0.7500    9.0933    0.0000 C   0  0  0  0  0  0  0  0  0  0  0  0
    0.7500    9.0933    0.0000 C   0  0  0  0  0  0  0  0  0  0  0  0
    1.5000   10.3923    0.0000 C   0  0  0  0  0  0  0  0  0  0  0  0
    0.7500   11.6913    0.0000 C   0  0  0  0  0  0  0  0  0  0  0  0
    1.5000   12.9904    0.0000 Br  0  0  0  0  0  0  0  0  0  0  0  0
   -0.7500   11.6913    0.0000 C   0  0  0  0  0  0  0  0  0  0  0  0
   -1.5000   10.3923    0.0000 N   0  0  0  0  0  0  0  0  0  0  0  0
    0.7500    1.2990    0.0000 C   0  0  0  0  0  0  0  0  0  0  0  0
    1.5000    2.5981    0.0000 Cl  0  0  0  0  0  0  0  0  0  0  0  0
  1  2  1  0
  2  3  1  0
  3  4  1  0
  4  5  2  0
  5  6  1  0
  6  7  2  0
  7  8  1  0
  7  9  1  0
  9 10  1  0
 10 11  1  0
 11 12  1  0
 12 13  1  0
 13 14  2  0
 13 15  1  0
 15 16  2  3
 16 17  1  0
 17 18  2  0
 18 19  1  0
 19 20  1  0
 19 21  2  0
 21 22  1  0
  9 23  2  0
 23 24  1  0
 23  4  1  0
 22 16  1  0
M  END
>  <Synonyms>  (60) 
PT-112

>  <Research Codes>  (60) 
PT-112

>  <Phase>  (60) 
1

>  <Applicants>  (60) 
nan

>  <USAN Stem>  (60) 
nan

>  <USAN Year>  (60) 
nan

>  <USAN Stem Definition>  (60) 
nan

>  <USAN Stem Substem>  (60) 
nan

>  <First Approval>  (60) 
nan

>  <ATC Codes>  (60) 
nan

>  <Level 4 ATC Codes>  (60) 
nan

>  <Level 3 ATC Codes>  (60) 
nan

>  <Level 2 ATC Codes>  (60) 
nan

>  <Level 1 ATC Codes>  (60) 
nan

>  <Indication Class>  (60) 
nan

>  <Patent>  (60) 
nan

>  <Drug Type>  (60) 
1:Synthetic Small Molecule

>  <Passes Rule of Five>  (60) 
True

>  <First In Class>  (60) 
False

>  <Chirality>  (60) 
Unknown

>  <Prodrug>  (60) 
False

>  <Oral>  (60) 
False

>  <Parenteral>  (60) 
False

>  <Topical>  (60) 
False

>  <Black Box>  (60) 
False

>  <Availability Type>  (60) 
Unknown

>  <Withdrawn Year>  (60) 
nan

>  <Withdrawn Reason>  (60) 
nan

>  <Withdrawn Country>  (60) 
nan

>  <Withdrawn Class>  (60) 
nan

>  <SMILES>  (60) 
CCOc1ccc(F)c(CCNC(=S)Nc2ccc(Br)cn2)c1Cl

>  <InChi Key>  (60) 
DTHZUSMREBJMBT-UHFFFAOYSA-N

$$$$
CHEMBL3585580
     RDKit          2D

 34 37  0  0  0  0  0  0  0  0999 V2000
    3.7500   -1.2990    0.0000 C   0  0  0  0  0  0  0  0  0  0  0  0
    3.0000    0.0000    0.0000 O   0  0  0  0  0  0  0  0  0  0  0  0
    1.5000    0.0000    0.0000 C   0  0  0  0  0  0  0  0  0  0  0  0
    0.7500   -1.2990    0.0000 C   0  0  0  0  0  0  0  0  0  0  0  0
   -0.7500   -1.2990    0.0000 C   0  0  0  0  0  0  0  0  0  0  0  0
   -1.5000    0.0000    0.0000 C   0  0  0  0  0  0  0  0  0  0  0  0
   -3.0000    0.0000    0.0000 O   0  0  0  0  0  0  0  0  0  0  0  0
   -3.7500    1.2990    0.0000 C   0  0  0  0  0  0  0  0  0  0  0  0
   -3.0000    2.5981    0.0000 C   0  0  0  0  0  0  0  0  0  0  0  0
   -3.7500    3.8971    0.0000 C   0  0  0  0  0  0  0  0  0  0  0  0
   -3.0000    5.1962    0.0000 N   0  0  0  0  0  0  0  0  0  0  0  0
   -1.5000    5.1962    0.0000 C   0  0  0  0  0  0  0  0  0  0  0  0
   -3.7500    6.4952    0.0000 C   0  0  0  0  0  0  0  0  0  0  0  0
   -3.0000    7.7942    0.0000 C   0  0  0  0  0  0  0  0  0  0  0  0
   -3.7500    9.0933    0.0000 O   0  0  0  0  0  0  0  0  0  0  0  0
   -3.0000   10.3923    0.0000 C   0  0  0  0  0  0  0  0  0  0  0  0
   -1.5000   10.3923    0.0000 C   0  0  0  0  0  0  0  0  0  0  0  0
   -0.7500   11.6913    0.0000 C   0  0  0  0  0  0  0  0  0  0  0  0
   -1.5000   12.9904    0.0000 C   0  0  0  0  0  0  0  0  0  0  0  0
   -0.7500   14.2894    0.0000 C   0  0  0  0  0  0  0  0  0  0  0  0
    0.7500   14.2894    0.0000 C   0  0  0  0  0  0  0  0  0  0  0  0
    1.6317   15.5029    0.0000 S   0  0  0  0  0  0  0  0  0  0  0  0
    3.0583   15.0394    0.0000 C   0  0  0  0  0  0  0  0  0  0  0  0
    4.2718   15.9211    0.0000 O   0  0  0  0  0  0  0  0  0  0  0  0
    3.0583   13.5394    0.0000 N   0  0  0  0  0  0  0  0  0  0  0  0
    1.6317   13.0759    0.0000 C   0  0  0  0  0  0  0  0  0  0  0  0
    1.1682   11.6493    0.0000 O   0  0  0  0  0  0  0  0  0  0  0  0
   -3.0000   12.9904    0.0000 C   0  0  0  0  0  0  0  0  0  0  0  0
   -3.7500   11.6913    0.0000 C   0  0  0  0  0  0  0  0  0  0  0  0
   -5.2500    3.8971    0.0000 N   0  0  0  0  0  0  0  0  0  0  0  0
   -6.0000    2.5981    0.0000 C   0  0  0  0  0  0  0  0  0  0  0  0
   -5.2500    1.2990    0.0000 N   0  0  0  0  0  0  0  0  0  0  0  0
   -0.7500    1.2990    0.0000 C   0  0  0  0  0  0  0  0  0  0  0  0
    0.7500    1.2990    0.0000 C   0  0  0  0  0  0  0  0  0  0  0  0
  1  2  1  0
  2  3  1  0
  3  4  2  0
  4  5  1  0
  5  6  2  0
  6  7  1  0
  7  8  1  0
  8  9  2  0
  9 10  1  0
 10 11  1  0
 11 12  1  0
 11 13  1  0
 13 14  1  0
 14 15  1  0
 15 16  1  0
 16 17  2  0
 17 18  1  0
 18 19  2  0
 19 20  1  0
 20 21  1  0
 21 22  1  0
 22 23  1  0
 23 24  2  0
 23 25  1  0
 25 26  1  0
 26 27  1  0
 19 28  1  0
 28 29  2  0
 10 30  2  0
 30 31  1  0
 31 32  2  0
  6 33  1  0
 33 34  2  0
 34  3  1  0
 32  8  1  0
 29 16  1  0
 26 21  2  0
M  END
>  <Synonyms>  (61) 
LOBEGLITAZONE|Lobeglitazone

>  <Research Codes>  (61) 
nan

>  <Phase>  (61) 
1

>  <Applicants>  (61) 
nan

>  <USAN Stem>  (61) 
'-glitazone'

>  <USAN Year>  (61) 
nan

>  <USAN Stem Definition>  (61) 
PPST agonists (thiazolidene derivatives)

>  <USAN Stem Substem>  (61) 
'-glitazone(-glitazone)'

>  <First Approval>  (61) 
nan

>  <ATC Codes>  (61) 
nan

>  <Level 4 ATC Codes>  (61) 
nan

>  <Level 3 ATC Codes>  (61) 
nan

>  <Level 2 ATC Codes>  (61) 
nan

>  <Level 1 ATC Codes>  (61) 
nan

>  <Indication Class>  (61) 
nan

>  <Patent>  (61) 
nan

>  <Drug Type>  (61) 
1:Synthetic Small Molecule

>  <Passes Rule of Five>  (61) 
True

>  <First In Class>  (61) 
False

>  <Chirality>  (61) 
Racemic Mixture

>  <Prodrug>  (61) 
False

>  <Oral>  (61) 
False

>  <Parenteral>  (61) 
False

>  <Topical>  (61) 
False

>  <Black Box>  (61) 
False

>  <Availability Type>  (61) 
Unknown

>  <Withdrawn Year>  (61) 
nan

>  <Withdrawn Reason>  (61) 
nan

>  <Withdrawn Country>  (61) 
nan

>  <Withdrawn Class>  (61) 
nan

>  <SMILES>  (61) 
COc1ccc(Oc2cc(N(C)CCOc3ccc(CC4SC(=O)NC4=O)cc3)ncn2)cc1

>  <InChi Key>  (61) 
PRHMFYIGPUNCOZ-UHFFFAOYSA-N

$$$$
CHEMBL3545388
     RDKit          2D

 19 20  0  0  0  0  0  0  0  0999 V2000
    3.7500   -1.2990    0.0000 C   0  0  0  0  0  0  0  0  0  0  0  0
    3.0000    0.0000    0.0000 C   0  0  0  0  0  0  0  0  0  0  0  0
    1.5000    0.0000    0.0000 N   0  0  0  0  0  0  0  0  0  0  0  0
    0.7500   -1.2990    0.0000 C   0  0  0  0  0  0  0  0  0  0  0  0
   -0.7500   -1.2990    0.0000 C   0  0  0  0  0  0  0  0  0  0  0  0
   -1.5000    0.0000    0.0000 C   0  0  0  0  0  0  0  0  0  0  0  0
   -3.0000    0.0000    0.0000 C   0  0  0  0  0  0  0  0  0  0  0  0
   -3.7500    1.2990    0.0000 C   0  0  0  0  0  0  0  0  0  0  0  0
   -5.2500    1.2990    0.0000 C   0  0  0  0  0  0  0  0  0  0  0  0
   -6.0000    2.5981    0.0000 F   0  0  0  0  0  0  0  0  0  0  0  0
   -6.0000    0.0000    0.0000 C   0  0  0  0  0  0  0  0  0  0  0  0
   -5.2500   -1.2990    0.0000 C   0  0  0  0  0  0  0  0  0  0  0  0
   -6.0000   -2.5981    0.0000 S   0  0  0  0  0  0  0  0  0  0  0  0
   -6.7500   -3.8971    0.0000 C   0  0  0  0  0  0  0  0  0  0  0  0
   -4.7010   -3.3481    0.0000 O   0  0  0  0  0  0  0  0  0  0  0  0
   -7.2990   -1.8481    0.0000 O   0  0  0  0  0  0  0  0  0  0  0  0
   -3.7500   -1.2990    0.0000 C   0  0  0  0  0  0  0  0  0  0  0  0
   -0.7500    1.2990    0.0000 C   0  0  0  0  0  0  0  0  0  0  0  0
    0.7500    1.2990    0.0000 C   0  0  0  0  0  0  0  0  0  0  0  0
  1  2  1  0
  2  3  1  0
  3  4  1  0
  4  5  1  0
  5  6  1  0
  6  7  1  0
  7  8  2  0
  8  9  1  0
  9 10  1  0
  9 11  2  0
 11 12  1  0
 12 13  1  0
 13 14  1  0
 13 15  2  0
 13 16  2  0
 12 17  2  0
  6 18  1  0
 18 19  1  0
 19  3  1  0
 17  7  1  0
M  END
>  <Synonyms>  (62) 
ACR343|Seridopidine

>  <Research Codes>  (62) 
nan

>  <Phase>  (62) 
1

>  <Applicants>  (62) 
nan

>  <USAN Stem>  (62) 
'-dopidine'

>  <USAN Year>  (62) 
nan

>  <USAN Stem Definition>  (62) 
dopamine D2 receptor modulator

>  <USAN Stem Substem>  (62) 
'-dopidine(-dopidine)'

>  <First Approval>  (62) 
nan

>  <ATC Codes>  (62) 
nan

>  <Level 4 ATC Codes>  (62) 
nan

>  <Level 3 ATC Codes>  (62) 
nan

>  <Level 2 ATC Codes>  (62) 
nan

>  <Level 1 ATC Codes>  (62) 
nan

>  <Indication Class>  (62) 
nan

>  <Patent>  (62) 
nan

>  <Drug Type>  (62) 
1:Synthetic Small Molecule

>  <Passes Rule of Five>  (62) 
True

>  <First In Class>  (62) 
False

>  <Chirality>  (62) 
Achiral Molecule

>  <Prodrug>  (62) 
False

>  <Oral>  (62) 
False

>  <Parenteral>  (62) 
False

>  <Topical>  (62) 
False

>  <Black Box>  (62) 
False

>  <Availability Type>  (62) 
Unknown

>  <Withdrawn Year>  (62) 
nan

>  <Withdrawn Reason>  (62) 
nan

>  <Withdrawn Country>  (62) 
nan

>  <Withdrawn Class>  (62) 
nan

>  <SMILES>  (62) 
CCN1CCC(c2cc(F)cc(S(C)(=O)=O)c2)CC1

>  <InChi Key>  (62) 
PHRDGRSMZPOCAB-UHFFFAOYSA-N

$$$$
CHEMBL2338397
     RDKit          2D

 33 35  0  0  0  0  0  0  0  0999 V2000
    2.5981   -9.0850    0.0000 C   0  0  0  0  0  0  0  0  0  0  0  0
    1.2990   -8.3350    0.0000 C   0  0  0  0  0  0  0  0  0  0  0  0
   -0.0000   -9.0850    0.0000 N   0  0  0  0  0  0  0  0  0  0  0  0
   -0.0000  -10.5850    0.0000 C   0  0  0  0  0  0  0  0  0  0  0  0
    1.2990  -11.3350    0.0000 O   0  0  0  0  0  0  0  0  0  0  0  0
   -1.2990  -11.3350    0.0000 C   0  0  0  0  0  0  0  0  0  0  0  0
   -1.2990  -12.8350    0.0000 C   0  0  0  0  0  0  0  0  0  0  0  0
   -2.5981  -13.5850    0.0000 C   0  0  0  0  0  0  0  0  0  0  0  0
   -3.8971  -14.3350    0.0000 F   0  0  0  0  0  0  0  0  0  0  0  0
   -1.8481  -14.8840    0.0000 F   0  0  0  0  0  0  0  0  0  0  0  0
   -3.3481  -12.2860    0.0000 F   0  0  0  0  0  0  0  0  0  0  0  0
    1.2990   -6.8350    0.0000 C   0  0  0  0  0  0  0  0  0  0  0  0
    2.5981   -6.0850    0.0000 O   0  0  0  0  0  0  0  0  0  0  0  0
   -0.0000   -6.0850    0.0000 N   0  0  0  0  0  0  0  0  0  0  0  0
   -0.0000   -4.5850    0.0000 C   0  0  0  0  0  0  0  0  0  0  0  0
    1.3515   -3.9342    0.0000 C   0  0  0  0  0  0  0  0  0  0  0  0
    2.5242   -4.8694    0.0000 O   0  0  0  0  0  0  0  0  0  0  0  0
    1.6852   -2.4718    0.0000 N   0  0  0  0  0  0  0  0  0  0  0  0
    3.1476   -2.1380    0.0000 C   0  0  0  0  0  0  0  0  0  0  0  0
    4.1679   -3.2376    0.0000 C   0  0  0  0  0  0  0  0  0  0  0  0
    5.6303   -2.9038    0.0000 O   0  0  0  0  0  0  0  0  0  0  0  0
    0.7500   -1.2990    0.0000 C   0  0  0  0  0  0  0  0  0  0  0  0
    1.5000    0.0000    0.0000 N   0  0  0  0  0  0  0  0  0  0  0  0
    0.7500    1.2990    0.0000 C   0  0  0  0  0  0  0  0  0  0  0  0
   -0.7500    1.2990    0.0000 C   0  0  0  0  0  0  0  0  0  0  0  0
   -1.5000    0.0000    0.0000 C   0  0  0  0  0  0  0  0  0  0  0  0
   -0.7500   -1.2990    0.0000 C   0  0  0  0  0  0  0  0  0  0  0  0
   -1.6852   -2.4718    0.0000 C   0  0  0  0  0  0  0  0  0  0  0  0
   -3.1186   -2.0297    0.0000 C   0  0  0  0  0  0  0  0  0  0  0  0
   -4.2182   -3.0499    0.0000 C   0  0  0  0  0  0  0  0  0  0  0  0
   -3.8844   -4.5123    0.0000 C   0  0  0  0  0  0  0  0  0  0  0  0
   -2.4510   -4.9544    0.0000 C   0  0  0  0  0  0  0  0  0  0  0  0
   -1.3515   -3.9342    0.0000 C   0  0  0  0  0  0  0  0  0  0  0  0
  1  2  1  0
  2  3  1  0
  3  4  1  0
  4  5  2  0
  4  6  1  0
  6  7  1  0
  7  8  1  0
  8  9  1  0
  8 10  1  0
  8 11  1  0
  2 12  1  0
 12 13  2  0
 12 14  1  0
 14 15  1  0
 15 16  1  0
 16 17  2  0
 16 18  1  0
 18 19  1  0
 19 20  1  0
 20 21  1  0
 18 22  1  0
 22 23  2  0
 23 24  1  0
 24 25  2  0
 25 26  1  0
 26 27  2  0
 27 28  1  0
 28 29  2  0
 29 30  1  0
 30 31  2  0
 31 32  1  0
 32 33  2  0
 33 15  1  0
 27 22  1  0
 33 28  1  0
M  END
>  <Synonyms>  (63) 
CRENIGACESTAT|LY-3039478|LY3039478

>  <Research Codes>  (63) 
LY-3039478|LY3039478

>  <Phase>  (63) 
1

>  <Applicants>  (63) 
nan

>  <USAN Stem>  (63) 
'-stat'

>  <USAN Year>  (63) 
2016.0

>  <USAN Stem Definition>  (63) 
enzyme inhibitors: gamma secretase inhibitors

>  <USAN Stem Substem>  (63) 
'-stat(-stat (-gacestat))'

>  <First Approval>  (63) 
nan

>  <ATC Codes>  (63) 
nan

>  <Level 4 ATC Codes>  (63) 
nan

>  <Level 3 ATC Codes>  (63) 
nan

>  <Level 2 ATC Codes>  (63) 
nan

>  <Level 1 ATC Codes>  (63) 
nan

>  <Indication Class>  (63) 
nan

>  <Patent>  (63) 
nan

>  <Drug Type>  (63) 
1:Synthetic Small Molecule

>  <Passes Rule of Five>  (63) 
True

>  <First In Class>  (63) 
False

>  <Chirality>  (63) 
Single Stereoisomer

>  <Prodrug>  (63) 
False

>  <Oral>  (63) 
False

>  <Parenteral>  (63) 
False

>  <Topical>  (63) 
False

>  <Black Box>  (63) 
False

>  <Availability Type>  (63) 
Unknown

>  <Withdrawn Year>  (63) 
nan

>  <Withdrawn Reason>  (63) 
nan

>  <Withdrawn Country>  (63) 
nan

>  <Withdrawn Class>  (63) 
nan

>  <SMILES>  (63) 
C[C@H](NC(=O)CCC(F)(F)F)C(=O)N[C@@H]1C(=O)N(CCO)c2ncccc2-c2ccccc21

>  <InChi Key>  (63) 
YCBAQKQAINQRFW-UHFFFAOYSA-N

$$$$
CHEMBL197669
     RDKit          2D

 20 22  0  0  0  0  0  0  0  0999 V2000
    6.0000   -2.5981    0.0000 C   0  0  0  0  0  0  0  0  0  0  0  0
    5.2500   -1.2990    0.0000 C   0  0  0  0  0  0  0  0  0  0  0  0
    3.7500   -1.2990    0.0000 C   0  0  0  0  0  0  0  0  0  0  0  0
    3.0000    0.0000    0.0000 C   0  0  0  0  0  0  0  0  0  0  0  0
    1.5000    0.0000    0.0000 C   0  0  0  0  0  0  0  0  0  0  0  0
    0.7500   -1.2990    0.0000 N   0  0  0  0  0  0  0  0  0  0  0  0
   -0.7500   -1.2990    0.0000 C   0  0  0  0  0  0  0  0  0  0  0  0
   -1.5000   -2.5981    0.0000 N   0  0  0  0  0  0  0  0  0  0  0  0
   -1.5000    0.0000    0.0000 C   0  0  0  0  0  0  0  0  0  0  0  0
   -2.9672    0.3119    0.0000 N   0  0  0  0  0  0  0  0  0  0  0  0
   -3.1240    1.8037    0.0000 C   0  0  0  0  0  0  0  0  0  0  0  0
   -4.4231    2.5537    0.0000 N   0  0  0  0  0  0  0  0  0  0  0  0
   -5.7934    1.9435    0.0000 N   0  0  0  0  0  0  0  0  0  0  0  0
   -6.7971    3.0583    0.0000 C   0  0  0  0  0  0  0  0  0  0  0  0
   -6.0471    4.3573    0.0000 C   0  0  0  0  0  0  0  0  0  0  0  0
   -4.5798    4.0454    0.0000 N   0  0  0  0  0  0  0  0  0  0  0  0
   -1.7537    2.4138    0.0000 N   0  0  0  0  0  0  0  0  0  0  0  0
   -1.4418    3.8810    0.0000 C   0  0  0  0  0  0  0  0  0  0  0  0
   -0.7500    1.2990    0.0000 C   0  0  0  0  0  0  0  0  0  0  0  0
    0.7500    1.2990    0.0000 N   0  0  0  0  0  0  0  0  0  0  0  0
  1  2  1  0
  2  3  1  0
  3  4  1  0
  4  5  1  0
  5  6  2  0
  6  7  1  0
  7  8  2  0
  7  9  1  0
  9 10  1  0
 10 11  2  0
 11 12  1  0
 12 13  1  0
 13 14  2  0
 14 15  1  0
 15 16  2  0
 11 17  1  0
 17 18  1  0
 17 19  1  0
 19 20  1  0
 20  5  1  0
 19  9  2  0
 16 12  1  0
M  END
>  <Synonyms>  (64) 
ST-1535|ST1535

>  <Research Codes>  (64) 
ST-1535

>  <Phase>  (64) 
1

>  <Applicants>  (64) 
nan

>  <USAN Stem>  (64) 
nan

>  <USAN Year>  (64) 
nan

>  <USAN Stem Definition>  (64) 
nan

>  <USAN Stem Substem>  (64) 
nan

>  <First Approval>  (64) 
nan

>  <ATC Codes>  (64) 
nan

>  <Level 4 ATC Codes>  (64) 
nan

>  <Level 3 ATC Codes>  (64) 
nan

>  <Level 2 ATC Codes>  (64) 
nan

>  <Level 1 ATC Codes>  (64) 
nan

>  <Indication Class>  (64) 
nan

>  <Patent>  (64) 
nan

>  <Drug Type>  (64) 
7:Natural Product-derived

>  <Passes Rule of Five>  (64) 
True

>  <First In Class>  (64) 
False

>  <Chirality>  (64) 
Achiral Molecule

>  <Prodrug>  (64) 
False

>  <Oral>  (64) 
False

>  <Parenteral>  (64) 
False

>  <Topical>  (64) 
False

>  <Black Box>  (64) 
False

>  <Availability Type>  (64) 
Unknown

>  <Withdrawn Year>  (64) 
nan

>  <Withdrawn Reason>  (64) 
nan

>  <Withdrawn Country>  (64) 
nan

>  <Withdrawn Class>  (64) 
nan

>  <SMILES>  (64) 
CCCCc1nc(N)c2nc(-n3nccn3)n(C)c2n1

>  <InChi Key>  (64) 
CYYQMAWUIRPCNW-UHFFFAOYSA-N

$$$$
CHEMBL3545378
     RDKit          2D

 37 42  0  0  0  0  0  0  0  0999 V2000
    0.4022   -7.7629    0.0000 C   0  0  0  0  0  0  0  0  0  0  0  0
    0.2454   -6.2711    0.0000 C   0  0  0  0  0  0  0  0  0  0  0  0
    1.3601   -5.2674    0.0000 C   0  0  0  0  0  0  0  0  0  0  0  0
    0.7500   -3.8971    0.0000 C   0  0  0  0  0  0  0  0  0  0  0  0
    1.5000   -2.5981    0.0000 N   0  0  0  0  0  0  0  0  0  0  0  0
    0.7500   -1.2990    0.0000 C   0  0  0  0  0  0  0  0  0  0  0  0
    1.5000    0.0000    0.0000 C   0  0  0  0  0  0  0  0  0  0  0  0
    0.7500    1.2990    0.0000 C   0  0  0  0  0  0  0  0  0  0  0  0
    1.5000    2.5981    0.0000 N   0  0  0  0  0  0  0  0  0  0  0  0
    2.9489    2.9863    0.0000 C   0  0  0  0  0  0  0  0  0  0  0  0
    2.5607    4.4352    0.0000 C   0  0  0  0  0  0  0  0  0  0  0  0
    4.0095    4.8234    0.0000 F   0  0  0  0  0  0  0  0  0  0  0  0
    2.1724    5.8841    0.0000 C   0  0  0  0  0  0  0  0  0  0  0  0
    1.1118    6.9447    0.0000 C   0  0  0  0  0  0  0  0  0  0  0  0
    2.5607    7.3330    0.0000 C   0  0  0  0  0  0  0  0  0  0  0  0
    1.1118    4.0470    0.0000 C   0  0  0  0  0  0  0  0  0  0  0  0
   -0.7500    1.2990    0.0000 N   0  0  0  0  0  0  0  0  0  0  0  0
   -1.5000    0.0000    0.0000 C   0  0  0  0  0  0  0  0  0  0  0  0
   -3.0000    0.0000    0.0000 O   0  0  0  0  0  0  0  0  0  0  0  0
   -3.7500    1.2990    0.0000 C   0  0  0  0  0  0  0  0  0  0  0  0
   -5.2418    1.4558    0.0000 C   0  0  0  0  0  0  0  0  0  0  0  0
   -5.5537    2.9231    0.0000 C   0  0  0  0  0  0  0  0  0  0  0  0
   -4.2546    3.6731    0.0000 N   0  0  0  0  0  0  0  0  0  0  0  0
   -4.0978    5.1648    0.0000 C   0  0  0  0  0  0  0  0  0  0  0  0
   -5.3113    6.0465    0.0000 O   0  0  0  0  0  0  0  0  0  0  0  0
   -2.7275    5.7749    0.0000 C   0  0  0  0  0  0  0  0  0  0  0  0
   -2.5707    7.2667    0.0000 C   0  0  0  0  0  0  0  0  0  0  0  0
   -1.2004    7.8768    0.0000 C   0  0  0  0  0  0  0  0  0  0  0  0
   -1.0436    9.3686    0.0000 Cl  0  0  0  0  0  0  0  0  0  0  0  0
    0.0131    6.9951    0.0000 C   0  0  0  0  0  0  0  0  0  0  0  0
   -0.1437    5.5034    0.0000 C   0  0  0  0  0  0  0  0  0  0  0  0
   -1.5140    4.8933    0.0000 C   0  0  0  0  0  0  0  0  0  0  0  0
   -1.6708    3.4015    0.0000 F   0  0  0  0  0  0  0  0  0  0  0  0
   -3.1399    2.6694    0.0000 C   0  0  0  0  0  0  0  0  0  0  0  0
   -0.7500   -1.2990    0.0000 N   0  0  0  0  0  0  0  0  0  0  0  0
   -0.7418   -4.0539    0.0000 N   0  0  0  0  0  0  0  0  0  0  0  0
   -1.0537   -5.5211    0.0000 N   0  0  0  0  0  0  0  0  0  0  0  0
  1  2  1  0
  2  3  2  0
  3  4  1  0
  4  5  2  3
  5  6  1  0
  6  7  2  0
  7  8  1  0
  8  9  1  0
  9 10  1  0
 10 11  1  0
 11 12  1  0
 11 13  1  0
 13 14  1  0
 14 15  1  0
 11 16  1  0
  8 17  2  0
 17 18  1  0
 18 19  1  0
 20 19  1  1
 20 21  1  0
 21 22  1  0
 22 23  1  0
 23 24  1  0
 24 25  2  0
 24 26  1  0
 26 27  2  0
 27 28  1  0
 28 29  1  0
 28 30  2  0
 30 31  1  0
 31 32  2  0
 32 33  1  0
 23 34  1  0
 18 35  2  0
  4 36  1  0
 36 37  1  0
 37  2  1  0
 35  6  1  0
 16  9  1  0
 34 20  1  0
 15 13  1  0
 32 26  1  0
M  END
>  <Synonyms>  (65) 
MK-6592|VX-667

>  <Research Codes>  (65) 
VX-667

>  <Phase>  (65) 
1

>  <Applicants>  (65) 
nan

>  <USAN Stem>  (65) 
nan

>  <USAN Year>  (65) 
nan

>  <USAN Stem Definition>  (65) 
nan

>  <USAN Stem Substem>  (65) 
nan

>  <First Approval>  (65) 
nan

>  <ATC Codes>  (65) 
nan

>  <Level 4 ATC Codes>  (65) 
nan

>  <Level 3 ATC Codes>  (65) 
nan

>  <Level 2 ATC Codes>  (65) 
nan

>  <Level 1 ATC Codes>  (65) 
nan

>  <Indication Class>  (65) 
nan

>  <Patent>  (65) 
nan

>  <Drug Type>  (65) 
1:Synthetic Small Molecule

>  <Passes Rule of Five>  (65) 
False

>  <First In Class>  (65) 
False

>  <Chirality>  (65) 
Single Stereoisomer

>  <Prodrug>  (65) 
False

>  <Oral>  (65) 
False

>  <Parenteral>  (65) 
False

>  <Topical>  (65) 
False

>  <Black Box>  (65) 
False

>  <Availability Type>  (65) 
Unknown

>  <Withdrawn Year>  (65) 
nan

>  <Withdrawn Reason>  (65) 
nan

>  <Withdrawn Country>  (65) 
nan

>  <Withdrawn Class>  (65) 
nan

>  <SMILES>  (65) 
Cc1cc(Nc2cc(N3CC(F)(C4CC4)C3)nc(O[C@H]3CCN(C(=O)c4cc(Cl)ccc4F)C3)n2)n[nH]1

>  <InChi Key>  (65) 
SLUHYAXFRJQTGB-KRWDZBQOSA-N

$$$$
CHEMBL498416
     RDKit          2D

 15 15  0  0  0  0  0  0  0  0999 V2000
    3.0000    0.0000    0.0000 N   0  0  0  0  0  0  0  0  0  0  0  0
    1.5000    0.0000    0.0000 C   0  0  0  0  0  0  0  0  0  0  0  0
    0.7500   -1.2990    0.0000 C   0  0  0  0  0  0  0  0  0  0  0  0
   -0.7500   -1.2990    0.0000 C   0  0  0  0  0  0  0  0  0  0  0  0
   -1.5000    0.0000    0.0000 C   0  0  0  0  0  0  0  0  0  0  0  0
   -0.7500    1.2990    0.0000 C   0  0  0  0  0  0  0  0  0  0  0  0
    0.7500    1.2990    0.0000 C   0  0  0  0  0  0  0  0  0  0  0  0
    1.5000    2.5981    0.0000 C   0  0  0  0  0  0  0  0  0  0  0  0
    3.0000    2.5981    0.0000 O   0  0  0  0  0  0  0  0  0  0  0  0
    0.7500    3.8971    0.0000 C   0  0  0  0  0  0  0  0  0  0  0  0
    1.5000    5.1962    0.0000 C   0  0  0  0  0  0  0  0  0  0  0  0
    3.0000    5.1962    0.0000 N   0  0  0  0  0  0  0  0  0  0  0  0
    0.7500    6.4952    0.0000 C   0  0  0  0  0  0  0  0  0  0  0  0
    1.5000    7.7942    0.0000 O   0  0  0  0  0  0  0  0  0  0  0  0
   -0.7500    6.4952    0.0000 O   0  0  0  0  0  0  0  0  0  0  0  0
  1  2  1  0
  2  3  2  0
  3  4  1  0
  4  5  2  0
  5  6  1  0
  6  7  2  0
  7  8  1  0
  8  9  2  0
  8 10  1  0
 10 11  1  0
 11 12  1  0
 11 13  1  0
 13 14  2  0
 13 15  1  0
  7  2  1  0
M  END
>  <Synonyms>  (66) 
L-Kynurenine

>  <Research Codes>  (66) 
nan

>  <Phase>  (66) 
1

>  <Applicants>  (66) 
nan

>  <USAN Stem>  (66) 
nan

>  <USAN Year>  (66) 
nan

>  <USAN Stem Definition>  (66) 
nan

>  <USAN Stem Substem>  (66) 
nan

>  <First Approval>  (66) 
nan

>  <ATC Codes>  (66) 
nan

>  <Level 4 ATC Codes>  (66) 
nan

>  <Level 3 ATC Codes>  (66) 
nan

>  <Level 2 ATC Codes>  (66) 
nan

>  <Level 1 ATC Codes>  (66) 
nan

>  <Indication Class>  (66) 
nan

>  <Patent>  (66) 
nan

>  <Drug Type>  (66) 
1:Synthetic Small Molecule

>  <Passes Rule of Five>  (66) 
True

>  <First In Class>  (66) 
False

>  <Chirality>  (66) 
Unknown

>  <Prodrug>  (66) 
False

>  <Oral>  (66) 
False

>  <Parenteral>  (66) 
False

>  <Topical>  (66) 
False

>  <Black Box>  (66) 
False

>  <Availability Type>  (66) 
Unknown

>  <Withdrawn Year>  (66) 
nan

>  <Withdrawn Reason>  (66) 
nan

>  <Withdrawn Country>  (66) 
nan

>  <Withdrawn Class>  (66) 
nan

>  <SMILES>  (66) 
Nc1ccccc1C(=O)C[C@H](N)C(=O)O

>  <InChi Key>  (66) 
YGPSJZOEDVAXAB-UHFFFAOYSA-N

$$$$
CHEMBL3545423
     RDKit          2D

 27 30  0  0  0  0  0  0  0  0999 V2000
    3.0000    0.0000    0.0000 N   0  0  0  0  0  0  0  0  0  0  0  0
    1.5000    0.0000    0.0000 C   0  0  0  0  0  0  0  0  0  0  0  0
    0.7500   -1.2990    0.0000 C   0  0  0  0  0  0  0  0  0  0  0  0
   -0.7500   -1.2990    0.0000 C   0  0  0  0  0  0  0  0  0  0  0  0
   -1.5000    0.0000    0.0000 C   0  0  0  0  0  0  0  0  0  0  0  0
   -0.7500    1.2990    0.0000 N   0  0  0  0  0  0  0  0  0  0  0  0
   -1.5000    2.5981    0.0000 C   0  0  0  0  0  0  0  0  0  0  0  0
   -0.7500    3.8971    0.0000 C   0  0  0  0  0  0  0  0  0  0  0  0
    0.7500    3.8971    0.0000 C   0  0  0  0  0  0  0  0  0  0  0  0
    1.5000    5.1962    0.0000 C   0  0  0  0  0  0  0  0  0  0  0  0
    2.9918    5.3529    0.0000 S   0  0  0  0  0  0  0  0  0  0  0  0
    3.3037    6.8202    0.0000 C   0  0  0  0  0  0  0  0  0  0  0  0
    4.6740    7.4303    0.0000 O   0  0  0  0  0  0  0  0  0  0  0  0
    2.0046    7.5702    0.0000 N   0  0  0  0  0  0  0  0  0  0  0  0
    0.8899    6.5665    0.0000 C   0  0  0  0  0  0  0  0  0  0  0  0
   -0.5773    6.8783    0.0000 O   0  0  0  0  0  0  0  0  0  0  0  0
   -1.5000    5.1962    0.0000 C   0  0  0  0  0  0  0  0  0  0  0  0
   -3.0000    5.1962    0.0000 C   0  0  0  0  0  0  0  0  0  0  0  0
   -3.7500    3.8971    0.0000 C   0  0  0  0  0  0  0  0  0  0  0  0
   -3.0000    2.5981    0.0000 C   0  0  0  0  0  0  0  0  0  0  0  0
   -3.7500    1.2990    0.0000 C   0  0  0  0  0  0  0  0  0  0  0  0
   -5.2500    1.2990    0.0000 C   0  0  0  0  0  0  0  0  0  0  0  0
   -6.0000   -0.0000    0.0000 C   0  0  0  0  0  0  0  0  0  0  0  0
   -5.2500   -1.2990    0.0000 C   0  0  0  0  0  0  0  0  0  0  0  0
   -3.7500   -1.2990    0.0000 C   0  0  0  0  0  0  0  0  0  0  0  0
   -3.0000   -0.0000    0.0000 C   0  0  0  0  0  0  0  0  0  0  0  0
    0.7500    1.2990    0.0000 C   0  0  0  0  0  0  0  0  0  0  0  0
  1  2  1  0
  2  3  1  0
  3  4  1  0
  4  5  1  0
  5  6  1  0
  6  7  1  0
  7  8  1  0
  8  9  1  0
  9 10  2  0
 10 11  1  0
 11 12  1  0
 12 13  2  0
 12 14  1  0
 14 15  1  0
 15 16  2  0
  8 17  2  0
 17 18  1  0
 18 19  2  0
 19 20  1  0
 20 21  1  0
 21 22  2  0
 22 23  1  0
 23 24  2  0
 24 25  1  0
 25 26  2  0
  6 27  1  0
 27  2  1  0
 20  7  2  0
 26 21  1  0
 15 10  1  0
M  END
>  <Synonyms>  (67) 
AZD 1208|AZD-1208

>  <Research Codes>  (67) 
nan

>  <Phase>  (67) 
1

>  <Applicants>  (67) 
nan

>  <USAN Stem>  (67) 
nan

>  <USAN Year>  (67) 
nan

>  <USAN Stem Definition>  (67) 
nan

>  <USAN Stem Substem>  (67) 
nan

>  <First Approval>  (67) 
nan

>  <ATC Codes>  (67) 
nan

>  <Level 4 ATC Codes>  (67) 
nan

>  <Level 3 ATC Codes>  (67) 
nan

>  <Level 2 ATC Codes>  (67) 
nan

>  <Level 1 ATC Codes>  (67) 
nan

>  <Indication Class>  (67) 
nan

>  <Patent>  (67) 
nan

>  <Drug Type>  (67) 
1:Synthetic Small Molecule

>  <Passes Rule of Five>  (67) 
True

>  <First In Class>  (67) 
False

>  <Chirality>  (67) 
Racemic Mixture

>  <Prodrug>  (67) 
False

>  <Oral>  (67) 
False

>  <Parenteral>  (67) 
False

>  <Topical>  (67) 
False

>  <Black Box>  (67) 
False

>  <Availability Type>  (67) 
Unknown

>  <Withdrawn Year>  (67) 
nan

>  <Withdrawn Reason>  (67) 
nan

>  <Withdrawn Country>  (67) 
nan

>  <Withdrawn Class>  (67) 
nan

>  <SMILES>  (67) 
NC1CCCN(c2c(/C=C3/SC(=O)NC3=O)cccc2-c2ccccc2)C1

>  <InChi Key>  (67) 
MCUJKPPARUPFJM-LDADJPATSA-N

$$$$
CHEMBL3545237
     RDKit          2D

 23 26  0  0  0  0  0  0  0  0999 V2000
   -4.9635   -9.2208    0.0000 C   0  0  0  0  0  0  0  0  0  0  0  0
   -4.2135   -7.9218    0.0000 C   0  0  0  0  0  0  0  0  0  0  0  0
   -3.4635   -6.6227    0.0000 C   0  0  0  0  0  0  0  0  0  0  0  0
   -4.8980   -6.1842    0.0000 O   0  0  0  0  0  0  0  0  0  0  0  0
   -2.2500   -7.5044    0.0000 C   0  0  0  0  0  0  0  0  0  0  0  0
   -1.0365   -6.6227    0.0000 C   0  0  0  0  0  0  0  0  0  0  0  0
   -1.5000   -5.1962    0.0000 C   0  0  0  0  0  0  0  0  0  0  0  0
   -0.7500   -3.8971    0.0000 C   0  0  0  0  0  0  0  0  0  0  0  0
    0.7500   -3.8971    0.0000 C   0  0  0  0  0  0  0  0  0  0  0  0
    1.5000   -2.5981    0.0000 C   0  0  0  0  0  0  0  0  0  0  0  0
    0.7500   -1.2990    0.0000 C   0  0  0  0  0  0  0  0  0  0  0  0
    1.5000    0.0000    0.0000 C   0  0  0  0  0  0  0  0  0  0  0  0
    0.7500    1.2990    0.0000 C   0  0  0  0  0  0  0  0  0  0  0  0
    1.5000    2.5981    0.0000 O   0  0  0  0  0  0  0  0  0  0  0  0
   -0.7500    1.2990    0.0000 C   0  0  0  0  0  0  0  0  0  0  0  0
   -1.5000    0.0000    0.0000 C   0  0  0  0  0  0  0  0  0  0  0  0
   -0.7500   -1.2990    0.0000 C   0  0  0  0  0  0  0  0  0  0  0  0
   -2.2500   -1.2990    0.0000 C   0  0  0  0  0  0  0  0  0  0  0  0
   -1.5000   -2.5981    0.0000 C   0  0  0  0  0  0  0  0  0  0  0  0
   -3.0000   -2.5981    0.0000 C   0  0  0  0  0  0  0  0  0  0  0  0
   -3.7500   -3.8971    0.0000 C   0  0  0  0  0  0  0  0  0  0  0  0
   -3.0000   -5.1962    0.0000 C   0  0  0  0  0  0  0  0  0  0  0  0
   -4.4998   -5.1699    0.0000 C   0  0  0  0  0  0  0  0  0  0  0  0
  1  2  3  0
  2  3  1  0
  3  4  1  6
  3  5  1  0
  5  6  1  0
  6  7  1  0
  7  8  1  0
  8  9  1  0
  9 10  1  0
 10 11  1  0
 11 12  1  0
 12 13  1  0
 13 14  1  0
 13 15  1  0
 15 16  1  0
 16 17  1  0
 17 18  1  6
 17 19  1  0
 19 20  1  0
 20 21  1  0
 21 22  1  0
 22 23  1  6
 22  3  1  0
 22  7  1  0
 19  8  1  0
 17 11  1  0
M  END
>  <Synonyms>  (68) 
Apotone|HE-3235|HE3235

>  <Research Codes>  (68) 
HE-3235

>  <Phase>  (68) 
1

>  <Applicants>  (68) 
nan

>  <USAN Stem>  (68) 
nan

>  <USAN Year>  (68) 
nan

>  <USAN Stem Definition>  (68) 
nan

>  <USAN Stem Substem>  (68) 
nan

>  <First Approval>  (68) 
nan

>  <ATC Codes>  (68) 
nan

>  <Level 4 ATC Codes>  (68) 
nan

>  <Level 3 ATC Codes>  (68) 
nan

>  <Level 2 ATC Codes>  (68) 
nan

>  <Level 1 ATC Codes>  (68) 
nan

>  <Indication Class>  (68) 
nan

>  <Patent>  (68) 
nan

>  <Drug Type>  (68) 
7:Natural Product-derived

>  <Passes Rule of Five>  (68) 
True

>  <First In Class>  (68) 
False

>  <Chirality>  (68) 
Racemic Mixture

>  <Prodrug>  (68) 
False

>  <Oral>  (68) 
False

>  <Parenteral>  (68) 
False

>  <Topical>  (68) 
False

>  <Black Box>  (68) 
False

>  <Availability Type>  (68) 
Unknown

>  <Withdrawn Year>  (68) 
nan

>  <Withdrawn Reason>  (68) 
nan

>  <Withdrawn Country>  (68) 
nan

>  <Withdrawn Class>  (68) 
nan

>  <SMILES>  (68) 
C#C[C@]1(O)CCC2C3CCC4CC(O)CC[C@]4(C)C3CC[C@@]21C

>  <InChi Key>  (68) 
CKAXZOYFIHQCBN-UQOAMHMYSA-N

$$$$
CHEMBL3545264
     RDKit          2D

 30 33  0  0  0  0  0  0  0  0999 V2000
   -0.7500   -3.8971    0.0000 C   0  0  0  0  0  0  0  0  0  0  0  0
    0.7500   -3.8971    0.0000 C   0  0  0  0  0  0  0  0  0  0  0  0
    1.5000   -2.5981    0.0000 O   0  0  0  0  0  0  0  0  0  0  0  0
    0.7500   -1.2990    0.0000 C   0  0  0  0  0  0  0  0  0  0  0  0
    1.5000    0.0000    0.0000 C   0  0  0  0  0  0  0  0  0  0  0  0
    0.7500    1.2990    0.0000 C   0  0  0  0  0  0  0  0  0  0  0  0
   -0.7500    1.2990    0.0000 C   0  0  0  0  0  0  0  0  0  0  0  0
   -1.7537    2.4138    0.0000 N   0  0  0  0  0  0  0  0  0  0  0  0
   -3.1240    1.8037    0.0000 N   0  0  0  0  0  0  0  0  0  0  0  0
   -2.9672    0.3119    0.0000 C   0  0  0  0  0  0  0  0  0  0  0  0
   -4.0819   -0.6918    0.0000 C   0  0  0  0  0  0  0  0  0  0  0  0
   -5.5085   -0.2283    0.0000 C   0  0  0  0  0  0  0  0  0  0  0  0
   -6.6232   -1.2320    0.0000 C   0  0  0  0  0  0  0  0  0  0  0  0
   -6.4664   -2.7238    0.0000 C   0  0  0  0  0  0  0  0  0  0  0  0
   -7.8368   -3.3339    0.0000 N   0  0  0  0  0  0  0  0  0  0  0  0
   -8.8405   -2.2192    0.0000 N   0  0  0  0  0  0  0  0  0  0  0  0
  -10.3322   -2.3760    0.0000 C   0  0  0  0  0  0  0  0  0  0  0  0
  -11.2139   -1.1624    0.0000 C   0  0  0  0  0  0  0  0  0  0  0  0
  -12.7057   -1.3192    0.0000 O   0  0  0  0  0  0  0  0  0  0  0  0
   -8.0905   -0.9201    0.0000 C   0  0  0  0  0  0  0  0  0  0  0  0
   -1.5000    0.0000    0.0000 C   0  0  0  0  0  0  0  0  0  0  0  0
   -0.7500   -1.2990    0.0000 C   0  0  0  0  0  0  0  0  0  0  0  0
    1.5000   -5.1962    0.0000 C   0  0  0  0  0  0  0  0  0  0  0  0
    3.0000   -5.1962    0.0000 C   0  0  0  0  0  0  0  0  0  0  0  0
    3.7500   -3.8971    0.0000 Cl  0  0  0  0  0  0  0  0  0  0  0  0
    3.7500   -6.4952    0.0000 C   0  0  0  0  0  0  0  0  0  0  0  0
    3.0000   -7.7942    0.0000 N   0  0  0  0  0  0  0  0  0  0  0  0
    1.5000   -7.7942    0.0000 C   0  0  0  0  0  0  0  0  0  0  0  0
    0.7500   -6.4952    0.0000 C   0  0  0  0  0  0  0  0  0  0  0  0
   -0.7500   -6.4952    0.0000 Cl  0  0  0  0  0  0  0  0  0  0  0  0
  1  2  1  0
  2  3  1  0
  3  4  1  0
  4  5  2  0
  5  6  1  0
  6  7  2  0
  7  8  1  0
  8  9  1  0
  9 10  2  0
 10 11  1  0
 11 12  2  3
 12 13  1  0
 13 14  1  0
 14 15  2  0
 15 16  1  0
 16 17  1  0
 17 18  1  0
 18 19  1  0
 16 20  1  0
 10 21  1  0
 21 22  2  0
  2 23  1  0
 23 24  2  0
 24 25  1  0
 24 26  1  0
 26 27  2  0
 27 28  1  0
 28 29  2  0
 29 30  1  0
 22  4  1  0
 29 23  1  0
 21  7  1  0
 20 13  2  0
M  END
>  <Synonyms>  (69) 
LY-2874455|LY2874455

>  <Research Codes>  (69) 
LY2874455

>  <Phase>  (69) 
1

>  <Applicants>  (69) 
nan

>  <USAN Stem>  (69) 
nan

>  <USAN Year>  (69) 
nan

>  <USAN Stem Definition>  (69) 
nan

>  <USAN Stem Substem>  (69) 
nan

>  <First Approval>  (69) 
nan

>  <ATC Codes>  (69) 
nan

>  <Level 4 ATC Codes>  (69) 
nan

>  <Level 3 ATC Codes>  (69) 
nan

>  <Level 2 ATC Codes>  (69) 
nan

>  <Level 1 ATC Codes>  (69) 
nan

>  <Indication Class>  (69) 
nan

>  <Patent>  (69) 
nan

>  <Drug Type>  (69) 
1:Synthetic Small Molecule

>  <Passes Rule of Five>  (69) 
True

>  <First In Class>  (69) 
False

>  <Chirality>  (69) 
Racemic Mixture

>  <Prodrug>  (69) 
False

>  <Oral>  (69) 
False

>  <Parenteral>  (69) 
False

>  <Topical>  (69) 
False

>  <Black Box>  (69) 
False

>  <Availability Type>  (69) 
Unknown

>  <Withdrawn Year>  (69) 
nan

>  <Withdrawn Reason>  (69) 
nan

>  <Withdrawn Country>  (69) 
nan

>  <Withdrawn Class>  (69) 
nan

>  <SMILES>  (69) 
CC(Oc1ccc2[nH]nc(/C=C/c3cnn(CCO)c3)c2c1)c1c(Cl)cncc1Cl

>  <InChi Key>  (69) 
GKJCVYLDJWTWQU-UHFFFAOYSA-N

$$$$
CHEMBL3545187
     RDKit          2D

 31 33  0  0  0  0  0  0  0  0999 V2000
    7.4146   -6.0524    0.0000 O   0  0  0  0  0  0  0  0  0  0  0  0
    6.2011   -6.9341    0.0000 C   0  0  0  0  0  0  0  0  0  0  0  0
    4.8308   -6.3240    0.0000 C   0  0  0  0  0  0  0  0  0  0  0  0
    4.6740   -4.8322    0.0000 C   0  0  0  0  0  0  0  0  0  0  0  0
    3.3037   -4.2221    0.0000 N   0  0  0  0  0  0  0  0  0  0  0  0
    2.0046   -4.9721    0.0000 C   0  0  0  0  0  0  0  0  0  0  0  0
    0.8899   -3.9684    0.0000 N   0  0  0  0  0  0  0  0  0  0  0  0
    1.5000   -2.5981    0.0000 C   0  0  0  0  0  0  0  0  0  0  0  0
    0.7500   -1.2990    0.0000 C   0  0  0  0  0  0  0  0  0  0  0  0
    1.5000    0.0000    0.0000 C   0  0  0  0  0  0  0  0  0  0  0  0
    0.7500    1.2990    0.0000 C   0  0  0  0  0  0  0  0  0  0  0  0
    1.5000    2.5981    0.0000 C   0  0  0  0  0  0  0  0  0  0  0  0
    2.2500    3.8971    0.0000 F   0  0  0  0  0  0  0  0  0  0  0  0
    2.7990    1.8481    0.0000 F   0  0  0  0  0  0  0  0  0  0  0  0
    0.2010    3.3481    0.0000 F   0  0  0  0  0  0  0  0  0  0  0  0
   -0.7500    1.2990    0.0000 C   0  0  0  0  0  0  0  0  0  0  0  0
   -1.5000    0.0000    0.0000 C   0  0  0  0  0  0  0  0  0  0  0  0
   -3.0000    0.0000    0.0000 C   0  0  0  0  0  0  0  0  0  0  0  0
   -4.5000    0.0000    0.0000 F   0  0  0  0  0  0  0  0  0  0  0  0
   -3.0000    1.5000    0.0000 F   0  0  0  0  0  0  0  0  0  0  0  0
   -3.0000   -1.5000    0.0000 F   0  0  0  0  0  0  0  0  0  0  0  0
   -0.7500   -1.2990    0.0000 C   0  0  0  0  0  0  0  0  0  0  0  0
    2.9918   -2.7549    0.0000 N   0  0  0  0  0  0  0  0  0  0  0  0
    6.3579   -8.4259    0.0000 N   0  0  0  0  0  0  0  0  0  0  0  0
    7.7282   -9.0360    0.0000 N   0  0  0  0  0  0  0  0  0  0  0  0
    7.8850  -10.5278    0.0000 C   0  0  0  0  0  0  0  0  0  0  0  0
    6.6715  -11.4094    0.0000 C   0  0  0  0  0  0  0  0  0  0  0  0
    6.8283  -12.9012    0.0000 C   0  0  0  0  0  0  0  0  0  0  0  0
    8.1986  -13.5113    0.0000 C   0  0  0  0  0  0  0  0  0  0  0  0
    9.4121  -12.6296    0.0000 C   0  0  0  0  0  0  0  0  0  0  0  0
    9.2553  -11.1379    0.0000 N   0  0  0  0  0  0  0  0  0  0  0  0
  1  2  2  0
  2  3  1  0
  3  4  2  3
  4  5  1  0
  5  6  1  0
  6  7  2  0
  7  8  1  0
  8  9  1  0
  9 10  2  0
 10 11  1  0
 11 12  1  0
 12 13  1  0
 12 14  1  0
 12 15  1  0
 11 16  2  0
 16 17  1  0
 17 18  1  0
 18 19  1  0
 18 20  1  0
 18 21  1  0
 17 22  2  0
  8 23  2  0
  2 24  1  0
 24 25  1  0
 25 26  2  3
 26 27  1  0
 27 28  2  0
 28 29  1  0
 29 30  2  0
 30 31  1  0
 23  5  1  0
 31 26  1  0
 22  9  1  0
M  END
>  <Synonyms>  (70) 
KPT-335|VERDINEXOR

>  <Research Codes>  (70) 
KPT-335

>  <Phase>  (70) 
1

>  <Applicants>  (70) 
nan

>  <USAN Stem>  (70) 
'-nexor'

>  <USAN Year>  (70) 
2015.0

>  <USAN Stem Definition>  (70) 
exportin 1 inhibitors

>  <USAN Stem Substem>  (70) 
'-nexor(-nexor)'

>  <First Approval>  (70) 
nan

>  <ATC Codes>  (70) 
nan

>  <Level 4 ATC Codes>  (70) 
nan

>  <Level 3 ATC Codes>  (70) 
nan

>  <Level 2 ATC Codes>  (70) 
nan

>  <Level 1 ATC Codes>  (70) 
nan

>  <Indication Class>  (70) 
nan

>  <Patent>  (70) 
nan

>  <Drug Type>  (70) 
1:Synthetic Small Molecule

>  <Passes Rule of Five>  (70) 
True

>  <First In Class>  (70) 
False

>  <Chirality>  (70) 
Achiral Molecule

>  <Prodrug>  (70) 
False

>  <Oral>  (70) 
False

>  <Parenteral>  (70) 
False

>  <Topical>  (70) 
False

>  <Black Box>  (70) 
False

>  <Availability Type>  (70) 
Unknown

>  <Withdrawn Year>  (70) 
nan

>  <Withdrawn Reason>  (70) 
nan

>  <Withdrawn Country>  (70) 
nan

>  <Withdrawn Class>  (70) 
nan

>  <SMILES>  (70) 
O=C(/C=C\n1cnc(-c2cc(C(F)(F)F)cc(C(F)(F)F)c2)n1)NNc1ccccn1

>  <InChi Key>  (70) 
OPAKEJZFFCECPN-UHFFFAOYSA-N

$$$$
CHEMBL15980
     RDKit          2D

  6  6  0  0  0  0  0  0  0  0999 V2000
    1.5000    0.0000    0.0000 C   0  0  0  0  0  0  0  0  0  0  0  0
    0.7500   -1.2990    0.0000 C   0  0  0  0  0  0  0  0  0  0  0  0
   -0.7500   -1.2990    0.0000 C   0  0  0  0  0  0  0  0  0  0  0  0
   -1.5000    0.0000    0.0000 C   0  0  0  0  0  0  0  0  0  0  0  0
   -0.7500    1.2990    0.0000 C   0  0  0  0  0  0  0  0  0  0  0  0
    0.7500    1.2990    0.0000 C   0  0  0  0  0  0  0  0  0  0  0  0
  1  2  1  0
  2  3  1  0
  3  4  1  0
  4  5  1  0
  5  6  1  0
  6  1  1  0
M  END
>  <Synonyms>  (71) 
CYCLOHEXANE|NSC-406835

>  <Research Codes>  (71) 
NSC-406835

>  <Phase>  (71) 
1

>  <Applicants>  (71) 
nan

>  <USAN Stem>  (71) 
nan

>  <USAN Year>  (71) 
nan

>  <USAN Stem Definition>  (71) 
nan

>  <USAN Stem Substem>  (71) 
nan

>  <First Approval>  (71) 
nan

>  <ATC Codes>  (71) 
nan

>  <Level 4 ATC Codes>  (71) 
nan

>  <Level 3 ATC Codes>  (71) 
nan

>  <Level 2 ATC Codes>  (71) 
nan

>  <Level 1 ATC Codes>  (71) 
nan

>  <Indication Class>  (71) 
nan

>  <Patent>  (71) 
nan

>  <Drug Type>  (71) 
1:Synthetic Small Molecule

>  <Passes Rule of Five>  (71) 
True

>  <First In Class>  (71) 
False

>  <Chirality>  (71) 
Achiral Molecule

>  <Prodrug>  (71) 
False

>  <Oral>  (71) 
False

>  <Parenteral>  (71) 
False

>  <Topical>  (71) 
False

>  <Black Box>  (71) 
False

>  <Availability Type>  (71) 
Unknown

>  <Withdrawn Year>  (71) 
nan

>  <Withdrawn Reason>  (71) 
nan

>  <Withdrawn Country>  (71) 
nan

>  <Withdrawn Class>  (71) 
nan

>  <SMILES>  (71) 
C1CCCCC1

>  <InChi Key>  (71) 
XDTMQSROBMDMFD-UHFFFAOYSA-N

$$$$
CHEMBL3545241
     RDKit          2D

 26 29  0  0  0  0  0  0  0  0999 V2000
   -4.0978   -7.7629    0.0000 C   0  0  0  0  0  0  0  0  0  0  0  0
   -4.2546   -6.2711    0.0000 C   0  0  0  0  0  0  0  0  0  0  0  0
   -3.1399   -5.2674    0.0000 C   0  0  0  0  0  0  0  0  0  0  0  0
   -3.7500   -3.8971    0.0000 C   0  0  0  0  0  0  0  0  0  0  0  0
   -3.0000   -2.5981    0.0000 N   0  0  0  0  0  0  0  0  0  0  0  0
   -1.5000   -2.5981    0.0000 C   0  0  0  0  0  0  0  0  0  0  0  0
   -0.7500   -3.8971    0.0000 N   0  0  0  0  0  0  0  0  0  0  0  0
    0.7500   -3.8971    0.0000 C   0  0  0  0  0  0  0  0  0  0  0  0
    1.5000   -5.1962    0.0000 C   0  0  0  0  0  0  0  0  0  0  0  0
    3.0000   -5.1962    0.0000 O   0  0  0  0  0  0  0  0  0  0  0  0
    0.7500   -6.4952    0.0000 C   0  0  0  0  0  0  0  0  0  0  0  0
   -0.7500   -6.4952    0.0000 C   0  0  0  0  0  0  0  0  0  0  0  0
   -1.5000   -7.7942    0.0000 C   0  0  0  0  0  0  0  0  0  0  0  0
   -0.7500   -9.0933    0.0000 C   0  0  0  0  0  0  0  0  0  0  0  0
   -1.5000  -10.3923    0.0000 F   0  0  0  0  0  0  0  0  0  0  0  0
    0.7500   -9.0933    0.0000 C   0  0  0  0  0  0  0  0  0  0  0  0
    1.5000   -7.7942    0.0000 C   0  0  0  0  0  0  0  0  0  0  0  0
    1.5000   -2.5981    0.0000 N   0  0  0  0  0  0  0  0  0  0  0  0
    0.7500   -1.2990    0.0000 C   0  0  0  0  0  0  0  0  0  0  0  0
    1.5000    0.0000    0.0000 C   0  0  0  0  0  0  0  0  0  0  0  0
    0.7500    1.2990    0.0000 C   0  0  0  0  0  0  0  0  0  0  0  0
   -0.7500    1.2990    0.0000 C   0  0  0  0  0  0  0  0  0  0  0  0
   -1.5000    0.0000    0.0000 C   0  0  0  0  0  0  0  0  0  0  0  0
   -0.7500   -1.2990    0.0000 C   0  0  0  0  0  0  0  0  0  0  0  0
   -5.2418   -4.0539    0.0000 N   0  0  0  0  0  0  0  0  0  0  0  0
   -5.5537   -5.5211    0.0000 N   0  0  0  0  0  0  0  0  0  0  0  0
  1  2  1  0
  2  3  2  0
  3  4  1  0
  4  5  2  3
  5  6  1  0
  6  7  2  0
  7  8  1  0
  8  9  1  0
  9 10  1  0
  9 11  1  0
 11 12  2  0
 12 13  1  0
 13 14  2  0
 14 15  1  0
 14 16  1  0
 16 17  2  0
  8 18  2  0
 18 19  1  0
 19 20  2  0
 20 21  1  0
 21 22  2  0
 22 23  1  0
 23 24  2  0
  4 25  1  0
 25 26  1  0
 26  2  1  0
 24  6  1  0
 17 11  1  0
 24 19  1  0
M  END
>  <Synonyms>  (72) 
AC-430|AC430

>  <Research Codes>  (72) 
AC430

>  <Phase>  (72) 
1

>  <Applicants>  (72) 
nan

>  <USAN Stem>  (72) 
nan

>  <USAN Year>  (72) 
nan

>  <USAN Stem Definition>  (72) 
nan

>  <USAN Stem Substem>  (72) 
nan

>  <First Approval>  (72) 
nan

>  <ATC Codes>  (72) 
nan

>  <Level 4 ATC Codes>  (72) 
nan

>  <Level 3 ATC Codes>  (72) 
nan

>  <Level 2 ATC Codes>  (72) 
nan

>  <Level 1 ATC Codes>  (72) 
nan

>  <Indication Class>  (72) 
nan

>  <Patent>  (72) 
nan

>  <Drug Type>  (72) 
1:Synthetic Small Molecule

>  <Passes Rule of Five>  (72) 
True

>  <First In Class>  (72) 
False

>  <Chirality>  (72) 
Racemic Mixture

>  <Prodrug>  (72) 
False

>  <Oral>  (72) 
False

>  <Parenteral>  (72) 
False

>  <Topical>  (72) 
False

>  <Black Box>  (72) 
False

>  <Availability Type>  (72) 
Unknown

>  <Withdrawn Year>  (72) 
nan

>  <Withdrawn Reason>  (72) 
nan

>  <Withdrawn Country>  (72) 
nan

>  <Withdrawn Class>  (72) 
nan

>  <SMILES>  (72) 
Cc1cc(Nc2nc(C(O)c3ccc(F)cc3)nc3ccccc23)n[nH]1

>  <InChi Key>  (72) 
DCRWIATZWHLIPN-UHFFFAOYSA-N

$$$$
CHEMBL281872
     RDKit          2D

 29 32  0  0  0  0  0  0  0  0999 V2000
   -5.2500   -3.8971    0.0000 C   0  0  0  0  0  0  0  0  0  0  0  0
   -3.7500   -3.8971    0.0000 O   0  0  0  0  0  0  0  0  0  0  0  0
   -3.0000   -2.5981    0.0000 C   0  0  0  0  0  0  0  0  0  0  0  0
   -1.5000   -2.5981    0.0000 C   0  0  0  0  0  0  0  0  0  0  0  0
   -0.7500   -1.2990    0.0000 C   0  0  0  0  0  0  0  0  0  0  0  0
    0.7500   -1.2990    0.0000 C   0  0  0  0  0  0  0  0  0  0  0  0
    1.5000   -2.5981    0.0000 N   0  0  0  0  0  0  0  0  0  0  0  0
    3.0000   -2.5981    0.0000 C   0  0  0  0  0  0  0  0  0  0  0  0
    3.7500   -3.8971    0.0000 C   0  0  0  0  0  0  0  0  0  0  0  0
    5.2500   -3.8971    0.0000 C   0  0  0  0  0  0  0  0  0  0  0  0
    6.0000   -2.5981    0.0000 C   0  0  0  0  0  0  0  0  0  0  0  0
    7.5000   -2.5981    0.0000 Br  0  0  0  0  0  0  0  0  0  0  0  0
    5.2500   -1.2990    0.0000 C   0  0  0  0  0  0  0  0  0  0  0  0
    3.7500   -1.2990    0.0000 C   0  0  0  0  0  0  0  0  0  0  0  0
    3.0000   -0.0000    0.0000 F   0  0  0  0  0  0  0  0  0  0  0  0
    1.5000    0.0000    0.0000 N   0  0  0  0  0  0  0  0  0  0  0  0
    0.7500    1.2990    0.0000 C   0  0  0  0  0  0  0  0  0  0  0  0
   -0.7500    1.2990    0.0000 N   0  0  0  0  0  0  0  0  0  0  0  0
   -1.5000    0.0000    0.0000 C   0  0  0  0  0  0  0  0  0  0  0  0
   -3.0000    0.0000    0.0000 C   0  0  0  0  0  0  0  0  0  0  0  0
   -3.7500   -1.2990    0.0000 C   0  0  0  0  0  0  0  0  0  0  0  0
   -5.2500   -1.2990    0.0000 O   0  0  0  0  0  0  0  0  0  0  0  0
   -6.0000    0.0000    0.0000 C   0  0  0  0  0  0  0  0  0  0  0  0
   -7.5000    0.0000    0.0000 C   0  0  0  0  0  0  0  0  0  0  0  0
   -8.2500    1.2990    0.0000 N   0  0  0  0  0  0  0  0  0  0  0  0
   -9.7418    1.4558    0.0000 C   0  0  0  0  0  0  0  0  0  0  0  0
  -10.0537    2.9231    0.0000 C   0  0  0  0  0  0  0  0  0  0  0  0
   -8.7546    3.6731    0.0000 N   0  0  0  0  0  0  0  0  0  0  0  0
   -7.6399    2.6694    0.0000 N   0  0  0  0  0  0  0  0  0  0  0  0
  1  2  1  0
  2  3  1  0
  3  4  2  0
  4  5  1  0
  5  6  1  0
  6  7  2  3
  7  8  1  0
  8  9  2  0
  9 10  1  0
 10 11  2  0
 11 12  1  0
 11 13  1  0
 13 14  2  0
 14 15  1  0
  6 16  1  0
 16 17  1  0
 17 18  2  0
 18 19  1  0
 19 20  1  0
 20 21  2  0
 21 22  1  0
 22 23  1  0
 23 24  1  0
 24 25  1  0
 25 26  1  0
 26 27  2  0
 27 28  1  0
 28 29  2  0
 21  3  1  0
 29 25  1  0
 19  5  2  0
 14  8  1  0
M  END
>  <Synonyms>  (73) 
ZD-4190

>  <Research Codes>  (73) 
ZD-4190

>  <Phase>  (73) 
1

>  <Applicants>  (73) 
nan

>  <USAN Stem>  (73) 
nan

>  <USAN Year>  (73) 
nan

>  <USAN Stem Definition>  (73) 
nan

>  <USAN Stem Substem>  (73) 
nan

>  <First Approval>  (73) 
nan

>  <ATC Codes>  (73) 
nan

>  <Level 4 ATC Codes>  (73) 
nan

>  <Level 3 ATC Codes>  (73) 
nan

>  <Level 2 ATC Codes>  (73) 
nan

>  <Level 1 ATC Codes>  (73) 
nan

>  <Indication Class>  (73) 
nan

>  <Patent>  (73) 
nan

>  <Drug Type>  (73) 
1:Synthetic Small Molecule

>  <Passes Rule of Five>  (73) 
True

>  <First In Class>  (73) 
False

>  <Chirality>  (73) 
Achiral Molecule

>  <Prodrug>  (73) 
False

>  <Oral>  (73) 
False

>  <Parenteral>  (73) 
False

>  <Topical>  (73) 
False

>  <Black Box>  (73) 
False

>  <Availability Type>  (73) 
Unknown

>  <Withdrawn Year>  (73) 
nan

>  <Withdrawn Reason>  (73) 
nan

>  <Withdrawn Country>  (73) 
nan

>  <Withdrawn Class>  (73) 
nan

>  <SMILES>  (73) 
COc1cc2c(Nc3ccc(Br)cc3F)ncnc2cc1OCCn1ccnn1

>  <InChi Key>  (73) 
YBTGTVGEKMZEQX-UHFFFAOYSA-N

$$$$
CHEMBL1967878
     RDKit          2D

 33 37  0  0  0  0  0  0  0  0999 V2000
    2.3657   -0.3733    0.0000 C   0  0  0  0  0  0  0  0  0  0  0  0
    3.3694    0.7414    0.0000 C   0  0  0  0  0  0  0  0  0  0  0  0
    2.9059    2.1680    0.0000 C   0  0  0  0  0  0  0  0  0  0  0  0
    3.9095    3.2828    0.0000 C   0  0  0  0  0  0  0  0  0  0  0  0
    3.4460    4.7093    0.0000 N   0  0  0  0  0  0  0  0  0  0  0  0
    1.9788    5.0212    0.0000 C   0  0  0  0  0  0  0  0  0  0  0  0
    1.5153    6.4478    0.0000 N   0  0  0  0  0  0  0  0  0  0  0  0
    0.0481    6.7597    0.0000 C   0  0  0  0  0  0  0  0  0  0  0  0
   -0.9556    5.6449    0.0000 C   0  0  0  0  0  0  0  0  0  0  0  0
   -2.4229    5.9568    0.0000 F   0  0  0  0  0  0  0  0  0  0  0  0
   -0.4921    4.2184    0.0000 C   0  0  0  0  0  0  0  0  0  0  0  0
   -1.4958    3.1036    0.0000 N   0  0  0  0  0  0  0  0  0  0  0  0
   -1.0323    1.6771    0.0000 C   0  0  0  0  0  0  0  0  0  0  0  0
    0.3943    1.2135    0.0000 C   0  0  0  0  0  0  0  0  0  0  0  0
    1.2760    0.0000    0.0000 C   0  0  0  0  0  0  0  0  0  0  0  0
    0.3943   -1.2135    0.0000 C   0  0  0  0  0  0  0  0  0  0  0  0
   -1.0323   -0.7500    0.0000 C   0  0  0  0  0  0  0  0  0  0  0  0
   -1.0323    0.7500    0.0000 C   0  0  0  0  0  0  0  0  0  0  0  0
   -1.9140    0.4635    0.0000 C   0  0  0  0  0  0  0  0  0  0  0  0
   -3.4140    0.4635    0.0000 C   0  0  0  0  0  0  0  0  0  0  0  0
   -4.1640   -0.8355    0.0000 N   0  0  0  0  0  0  0  0  0  0  0  0
   -4.1640    1.7626    0.0000 O   0  0  0  0  0  0  0  0  0  0  0  0
    0.9751    3.9065    0.0000 N   0  0  0  0  0  0  0  0  0  0  0  0
    5.3768    2.9709    0.0000 C   0  0  0  0  0  0  0  0  0  0  0  0
    5.8403    1.5443    0.0000 C   0  0  0  0  0  0  0  0  0  0  0  0
    4.8366    0.4296    0.0000 C   0  0  0  0  0  0  0  0  0  0  0  0
    5.3001   -0.9970    0.0000 N   0  0  0  0  0  0  0  0  0  0  0  0
    4.2964   -2.1117    0.0000 C   0  0  0  0  0  0  0  0  0  0  0  0
    4.7600   -3.5383    0.0000 C   0  0  0  0  0  0  0  0  0  0  0  0
    6.2272   -3.8502    0.0000 N   0  0  0  0  0  0  0  0  0  0  0  0
    6.6907   -5.2768    0.0000 C   0  0  0  0  0  0  0  0  0  0  0  0
    7.2309   -2.7355    0.0000 C   0  0  0  0  0  0  0  0  0  0  0  0
    6.7673   -1.3089    0.0000 C   0  0  0  0  0  0  0  0  0  0  0  0
  1  2  1  0
  2  3  2  0
  3  4  1  0
  4  5  1  0
  5  6  2  3
  6  7  1  0
  7  8  1  0
  8  9  2  0
  9 10  1  0
  9 11  1  0
 11 12  2  3
 12 13  1  0
 13 14  1  0
 14 15  1  0
 15 16  2  0
 16 17  1  0
 17 18  1  0
 17 19  1  0
 19 20  1  0
 20 21  1  0
 20 22  2  0
 11 23  1  0
  4 24  2  0
 24 25  1  0
 25 26  2  0
 26 27  1  0
 27 28  1  0
 28 29  1  0
 29 30  1  0
 30 31  1  0
 30 32  1  0
 32 33  1  0
 26  2  1  0
 33 27  1  0
 23  6  1  0
 19 13  1  0
 18 14  1  0
M  END
>  <Synonyms>  (74) 
AS 703569|AS-703569|AS703569|CENISERTIB|Cenisertib|R 763|R-763

>  <Research Codes>  (74) 
AS 703569|AS-703569|AS703569|R 763|R-763

>  <Phase>  (74) 
1

>  <Applicants>  (74) 
nan

>  <USAN Stem>  (74) 
'-sertib'

>  <USAN Year>  (74) 
nan

>  <USAN Stem Definition>  (74) 
serine/threonine kinase inhibitors

>  <USAN Stem Substem>  (74) 
'-sertib(-sertib)'

>  <First Approval>  (74) 
nan

>  <ATC Codes>  (74) 
nan

>  <Level 4 ATC Codes>  (74) 
nan

>  <Level 3 ATC Codes>  (74) 
nan

>  <Level 2 ATC Codes>  (74) 
nan

>  <Level 1 ATC Codes>  (74) 
nan

>  <Indication Class>  (74) 
nan

>  <Patent>  (74) 
nan

>  <Drug Type>  (74) 
1:Synthetic Small Molecule

>  <Passes Rule of Five>  (74) 
True

>  <First In Class>  (74) 
False

>  <Chirality>  (74) 
Racemic Mixture

>  <Prodrug>  (74) 
False

>  <Oral>  (74) 
False

>  <Parenteral>  (74) 
False

>  <Topical>  (74) 
False

>  <Black Box>  (74) 
False

>  <Availability Type>  (74) 
Unknown

>  <Withdrawn Year>  (74) 
nan

>  <Withdrawn Reason>  (74) 
nan

>  <Withdrawn Country>  (74) 
nan

>  <Withdrawn Class>  (74) 
nan

>  <SMILES>  (74) 
Cc1cc(Nc2ncc(F)c(NC3C4C=CC(C4)C3C(N)=O)n2)ccc1N1CCN(C)CC1

>  <InChi Key>  (74) 
KSOVGRCOLZZTPF-UHFFFAOYSA-N

$$$$
CHEMBL3661115
     RDKit          2D

 34 38  0  0  0  0  0  0  0  0999 V2000
   -7.2470   -1.7024    0.0000 C   0  0  0  0  0  0  0  0  0  0  0  0
   -5.8204   -1.2389    0.0000 C   0  0  0  0  0  0  0  0  0  0  0  0
   -5.5085    0.2283    0.0000 C   0  0  0  0  0  0  0  0  0  0  0  0
   -6.6232    1.2320    0.0000 C   0  0  0  0  0  0  0  0  0  0  0  0
   -6.3114    2.6992    0.0000 C   0  0  0  0  0  0  0  0  0  0  0  0
   -7.4261    3.7029    0.0000 C   0  0  0  0  0  0  0  0  0  0  0  0
   -7.1142    5.1701    0.0000 N   0  0  0  0  0  0  0  0  0  0  0  0
   -8.8527    3.2394    0.0000 O   0  0  0  0  0  0  0  0  0  0  0  0
   -4.8848    3.1627    0.0000 C   0  0  0  0  0  0  0  0  0  0  0  0
   -3.7701    2.1590    0.0000 C   0  0  0  0  0  0  0  0  0  0  0  0
   -4.0819    0.6918    0.0000 C   0  0  0  0  0  0  0  0  0  0  0  0
   -2.9672   -0.3119    0.0000 N   0  0  0  0  0  0  0  0  0  0  0  0
   -3.1240   -1.8037    0.0000 N   0  0  0  0  0  0  0  0  0  0  0  0
   -1.7537   -2.4138    0.0000 C   0  0  0  0  0  0  0  0  0  0  0  0
   -1.4418   -3.8810    0.0000 C   0  0  0  0  0  0  0  0  0  0  0  0
   -2.5565   -4.8847    0.0000 C   0  0  0  0  0  0  0  0  0  0  0  0
   -0.0152   -4.3445    0.0000 C   0  0  0  0  0  0  0  0  0  0  0  0
   -0.7500   -1.2990    0.0000 C   0  0  0  0  0  0  0  0  0  0  0  0
    0.7500   -1.2990    0.0000 C   0  0  0  0  0  0  0  0  0  0  0  0
    1.5000   -2.5981    0.0000 N   0  0  0  0  0  0  0  0  0  0  0  0
    2.9918   -2.7549    0.0000 C   0  0  0  0  0  0  0  0  0  0  0  0
    3.3037   -4.2221    0.0000 N   0  0  0  0  0  0  0  0  0  0  0  0
    2.0046   -4.9721    0.0000 C   0  0  0  0  0  0  0  0  0  0  0  0
    1.8478   -6.4639    0.0000 C   0  0  0  0  0  0  0  0  0  0  0  0
    2.9625   -7.4676    0.0000 C   0  0  0  0  0  0  0  0  0  0  0  0
    2.3524   -8.8379    0.0000 N   0  0  0  0  0  0  0  0  0  0  0  0
    0.8606   -8.6811    0.0000 N   0  0  0  0  0  0  0  0  0  0  0  0
   -0.1430   -9.7958    0.0000 C   0  0  0  0  0  0  0  0  0  0  0  0
    0.5488   -7.2139    0.0000 C   0  0  0  0  0  0  0  0  0  0  0  0
    0.8899   -3.9684    0.0000 C   0  0  0  0  0  0  0  0  0  0  0  0
    1.5000    0.0000    0.0000 C   0  0  0  0  0  0  0  0  0  0  0  0
    0.7500    1.2990    0.0000 C   0  0  0  0  0  0  0  0  0  0  0  0
   -0.7500    1.2990    0.0000 N   0  0  0  0  0  0  0  0  0  0  0  0
   -1.5000    0.0000    0.0000 C   0  0  0  0  0  0  0  0  0  0  0  0
  1  2  1  0
  2  3  1  0
  3  4  2  0
  4  5  1  0
  5  6  1  0
  6  7  1  0
  6  8  2  0
  5  9  2  0
  9 10  1  0
 10 11  2  0
 11 12  1  0
 12 13  1  0
 13 14  2  0
 14 15  1  0
 15 16  1  0
 15 17  1  0
 14 18  1  0
 18 19  2  0
 19 20  1  0
 20 21  1  0
 21 22  2  0
 22 23  1  0
 23 24  1  0
 24 25  1  0
 25 26  2  0
 26 27  1  0
 27 28  1  0
 27 29  1  0
 23 30  2  0
 19 31  1  0
 31 32  2  0
 32 33  1  0
 33 34  2  0
 11  3  1  0
 34 12  1  0
 34 18  1  0
 30 20  1  0
 29 24  2  0
M  END
>  <Synonyms>  (75) 
TAS 116|TAS-116

>  <Research Codes>  (75) 
nan

>  <Phase>  (75) 
1

>  <Applicants>  (75) 
nan

>  <USAN Stem>  (75) 
nan

>  <USAN Year>  (75) 
nan

>  <USAN Stem Definition>  (75) 
nan

>  <USAN Stem Substem>  (75) 
nan

>  <First Approval>  (75) 
nan

>  <ATC Codes>  (75) 
nan

>  <Level 4 ATC Codes>  (75) 
nan

>  <Level 3 ATC Codes>  (75) 
nan

>  <Level 2 ATC Codes>  (75) 
nan

>  <Level 1 ATC Codes>  (75) 
nan

>  <Indication Class>  (75) 
nan

>  <Patent>  (75) 
nan

>  <Drug Type>  (75) 
1:Synthetic Small Molecule

>  <Passes Rule of Five>  (75) 
True

>  <First In Class>  (75) 
False

>  <Chirality>  (75) 
Achiral Molecule

>  <Prodrug>  (75) 
False

>  <Oral>  (75) 
False

>  <Parenteral>  (75) 
False

>  <Topical>  (75) 
False

>  <Black Box>  (75) 
False

>  <Availability Type>  (75) 
Unknown

>  <Withdrawn Year>  (75) 
nan

>  <Withdrawn Reason>  (75) 
nan

>  <Withdrawn Country>  (75) 
nan

>  <Withdrawn Class>  (75) 
nan

>  <SMILES>  (75) 
CCc1cc(C(N)=O)ccc1-n1nc(C(C)C)c2c(-n3cnc(-c4cnn(C)c4)c3)ccnc21

>  <InChi Key>  (75) 
NVVPMZUGELHVMH-UHFFFAOYSA-N

$$$$
CHEMBL1767164
     RDKit          2D

 46 51  0  0  0  0  0  0  0  0999 V2000
    3.0000   -2.5981    0.0000 O   0  0  0  0  0  0  0  0  0  0  0  0
    3.7500   -3.8971    0.0000 C   0  0  0  0  0  0  0  0  0  0  0  0
    5.2500   -3.8971    0.0000 C   0  0  0  0  0  0  0  0  0  0  0  0
    6.0000   -2.5981    0.0000 C   0  0  0  0  0  0  0  0  0  0  0  0
    7.5000   -2.5981    0.0000 C   0  0  0  0  0  0  0  0  0  0  0  0
    8.2500   -3.8971    0.0000 C   0  0  0  0  0  0  0  0  0  0  0  0
    7.5000   -5.1962    0.0000 C   0  0  0  0  0  0  0  0  0  0  0  0
    6.0000   -5.1962    0.0000 C   0  0  0  0  0  0  0  0  0  0  0  0
    5.2500   -6.4952    0.0000 C   0  0  0  0  0  0  0  0  0  0  0  0
    6.0000   -7.7942    0.0000 C   0  0  0  0  0  0  0  0  0  0  0  0
    5.2500   -9.0933    0.0000 C   0  0  0  0  0  0  0  0  0  0  0  0
    6.0000  -10.3923    0.0000 C   0  0  0  0  0  0  0  0  0  0  0  0
    5.2500  -11.6913    0.0000 C   0  0  0  0  0  0  0  0  0  0  0  0
    3.7500  -11.6913    0.0000 C   0  0  0  0  0  0  0  0  0  0  0  0
    3.0000  -12.9904    0.0000 Cl  0  0  0  0  0  0  0  0  0  0  0  0
    3.0000  -10.3923    0.0000 C   0  0  0  0  0  0  0  0  0  0  0  0
    3.7500   -9.0933    0.0000 C   0  0  0  0  0  0  0  0  0  0  0  0
    3.7500   -6.4952    0.0000 N   0  0  0  0  0  0  0  0  0  0  0  0
    3.0000   -5.1962    0.0000 N   0  0  0  0  0  0  0  0  0  0  0  0
    1.5000   -5.1962    0.0000 C   0  0  0  0  0  0  0  0  0  0  0  0
    0.7500   -6.4952    0.0000 C   0  0  0  0  0  0  0  0  0  0  0  0
    1.3601   -7.8655    0.0000 C   0  0  0  0  0  0  0  0  0  0  0  0
    0.2454   -8.8692    0.0000 C   0  0  0  0  0  0  0  0  0  0  0  0
   -1.0537   -8.1192    0.0000 C   0  0  0  0  0  0  0  0  0  0  0  0
   -0.7418   -6.6520    0.0000 N   0  0  0  0  0  0  0  0  0  0  0  0
   -1.7455   -5.5373    0.0000 C   0  0  0  0  0  0  0  0  0  0  0  0
   -1.2820   -4.1107    0.0000 C   0  0  0  0  0  0  0  0  0  0  0  0
   -2.2856   -2.9960    0.0000 C   0  0  0  0  0  0  0  0  0  0  0  0
   -1.8221   -1.5694    0.0000 C   0  0  0  0  0  0  0  0  0  0  0  0
   -2.8258   -0.4547    0.0000 C   0  0  0  0  0  0  0  0  0  0  0  0
   -4.2930   -0.7665    0.0000 C   0  0  0  0  0  0  0  0  0  0  0  0
   -5.2967    0.3482    0.0000 C   0  0  0  0  0  0  0  0  0  0  0  0
   -4.8332    1.7748    0.0000 C   0  0  0  0  0  0  0  0  0  0  0  0
   -5.8369    2.8895    0.0000 O   0  0  0  0  0  0  0  0  0  0  0  0
   -7.3041    2.5776    0.0000 C   0  0  0  0  0  0  0  0  0  0  0  0
   -8.3078    3.6923    0.0000 C   0  0  0  0  0  0  0  0  0  0  0  0
   -9.7750    3.3805    0.0000 C   0  0  0  0  0  0  0  0  0  0  0  0
  -10.7787    4.4952    0.0000 N   0  0  0  0  0  0  0  0  0  0  0  0
  -10.2099    5.8831    0.0000 C   0  0  0  0  0  0  0  0  0  0  0  0
  -10.9404    7.1933    0.0000 C   0  0  0  0  0  0  0  0  0  0  0  0
  -12.4201    7.4390    0.0000 C   0  0  0  0  0  0  0  0  0  0  0  0
  -13.5348    6.4353    0.0000 C   0  0  0  0  0  0  0  0  0  0  0  0
  -13.4451    4.9380    0.0000 C   0  0  0  0  0  0  0  0  0  0  0  0
  -12.2186    4.0745    0.0000 C   0  0  0  0  0  0  0  0  0  0  0  0
   -3.3660    2.0866    0.0000 C   0  0  0  0  0  0  0  0  0  0  0  0
   -2.3623    0.9719    0.0000 C   0  0  0  0  0  0  0  0  0  0  0  0
  1  2  2  0
  2  3  1  0
  3  4  2  0
  4  5  1  0
  5  6  2  0
  6  7  1  0
  7  8  2  0
  8  9  1  0
  9 10  1  0
 10 11  1  0
 11 12  2  0
 12 13  1  0
 13 14  2  0
 14 15  1  0
 14 16  1  0
 16 17  2  0
  9 18  2  0
 18 19  1  0
 19 20  1  0
 21 20  1  1
 21 22  1  0
 22 23  1  0
 23 24  1  0
 24 25  1  0
 25 26  1  0
 26 27  1  0
 27 28  1  0
 28 29  1  0
 29 30  1  0
 30 31  2  0
 31 32  1  0
 32 33  2  0
 33 34  1  0
 34 35  1  0
 35 36  1  0
 36 37  1  0
 37 38  1  0
 38 39  1  0
 39 40  1  0
 40 41  1  0
 41 42  1  0
 42 43  1  0
 43 44  1  0
 33 45  1  0
 45 46  2  0
 19  2  1  0
 25 21  1  0
 46 30  1  0
  8  3  1  0
 17 11  1  0
 44 38  1  0
M  END
>  <Synonyms>  (76) 
GSK-1004723|GSK1004723

>  <Research Codes>  (76) 
GSK1004723

>  <Phase>  (76) 
1

>  <Applicants>  (76) 
nan

>  <USAN Stem>  (76) 
nan

>  <USAN Year>  (76) 
nan

>  <USAN Stem Definition>  (76) 
nan

>  <USAN Stem Substem>  (76) 
nan

>  <First Approval>  (76) 
nan

>  <ATC Codes>  (76) 
nan

>  <Level 4 ATC Codes>  (76) 
nan

>  <Level 3 ATC Codes>  (76) 
nan

>  <Level 2 ATC Codes>  (76) 
nan

>  <Level 1 ATC Codes>  (76) 
nan

>  <Indication Class>  (76) 
nan

>  <Patent>  (76) 
nan

>  <Drug Type>  (76) 
1:Synthetic Small Molecule

>  <Passes Rule of Five>  (76) 
False

>  <First In Class>  (76) 
False

>  <Chirality>  (76) 
Single Stereoisomer

>  <Prodrug>  (76) 
False

>  <Oral>  (76) 
False

>  <Parenteral>  (76) 
False

>  <Topical>  (76) 
False

>  <Black Box>  (76) 
False

>  <Availability Type>  (76) 
Unknown

>  <Withdrawn Year>  (76) 
nan

>  <Withdrawn Reason>  (76) 
nan

>  <Withdrawn Country>  (76) 
nan

>  <Withdrawn Class>  (76) 
nan

>  <SMILES>  (76) 
O=c1c2ccccc2c(Cc2ccc(Cl)cc2)nn1C[C@H]1CCCN1CCCCc1ccc(OCCCN2CCCCCC2)cc1

>  <InChi Key>  (76) 
YANGEESWIGIKOP-UUWRZZSWSA-N

$$$$
CHEMBL2106991
     RDKit          2D

 17 18  0  0  0  0  0  0  0  0999 V2000
    3.0000    0.0000    0.0000 O   0  0  0  0  0  0  0  0  0  0  0  0
    1.5000    0.0000    0.0000 C   0  0  0  0  0  0  0  0  0  0  0  0
    0.7500   -1.2990    0.0000 N   0  0  0  0  0  0  0  0  0  0  0  0
   -0.7500   -1.2990    0.0000 C   0  0  0  0  0  0  0  0  0  0  0  0
   -1.5000   -2.5981    0.0000 O   0  0  0  0  0  0  0  0  0  0  0  0
   -1.5000    0.0000    0.0000 N   0  0  0  0  0  0  0  0  0  0  0  0
   -3.0000    0.0000    0.0000 C   0  0  0  0  0  0  0  0  0  0  0  0
   -3.8817   -1.2135    0.0000 C   0  0  0  0  0  0  0  0  0  0  0  0
   -5.3083   -0.7500    0.0000 C   0  0  0  0  0  0  0  0  0  0  0  0
   -6.5218   -1.6317    0.0000 F   0  0  0  0  0  0  0  0  0  0  0  0
   -5.3083    0.7500    0.0000 C   0  0  0  0  0  0  0  0  0  0  0  0
   -6.5218    1.6317    0.0000 C   0  0  0  0  0  0  0  0  0  0  0  0
   -6.3650    3.1235    0.0000 O   0  0  0  0  0  0  0  0  0  0  0  0
   -3.8817    1.2135    0.0000 O   0  0  0  0  0  0  0  0  0  0  0  0
   -0.7500    1.2990    0.0000 C   0  0  0  0  0  0  0  0  0  0  0  0
    0.7500    1.2990    0.0000 C   0  0  0  0  0  0  0  0  0  0  0  0
    1.5000    2.5981    0.0000 Cl  0  0  0  0  0  0  0  0  0  0  0  0
  1  2  2  0
  2  3  1  0
  3  4  1  0
  4  5  2  0
  4  6  1  0
  7  6  1  1
  7  8  1  0
  8  9  1  0
  9 10  1  6
  9 11  1  0
 11 12  1  1
 12 13  1  0
 11 14  1  0
  6 15  1  0
 15 16  2  0
 16 17  1  0
 16  2  1  0
 14  7  1  0
M  END
>  <Synonyms>  (77) 
935-U-83|935U83|RALURIDINE

>  <Research Codes>  (77) 
935-U-83|935U83

>  <Phase>  (77) 
1

>  <Applicants>  (77) 
nan

>  <USAN Stem>  (77) 
'-uridine'

>  <USAN Year>  (77) 
1996.0

>  <USAN Stem Definition>  (77) 
antivirals, antineoplastics (uridine derivatives)

>  <USAN Stem Substem>  (77) 
'-uridine(-uridine)'

>  <First Approval>  (77) 
nan

>  <ATC Codes>  (77) 
nan

>  <Level 4 ATC Codes>  (77) 
nan

>  <Level 3 ATC Codes>  (77) 
nan

>  <Level 2 ATC Codes>  (77) 
nan

>  <Level 1 ATC Codes>  (77) 
nan

>  <Indication Class>  (77) 
Antiviral

>  <Patent>  (77) 
nan

>  <Drug Type>  (77) 
7:Natural Product-derived

>  <Passes Rule of Five>  (77) 
True

>  <First In Class>  (77) 
False

>  <Chirality>  (77) 
Single Stereoisomer

>  <Prodrug>  (77) 
False

>  <Oral>  (77) 
False

>  <Parenteral>  (77) 
False

>  <Topical>  (77) 
False

>  <Black Box>  (77) 
False

>  <Availability Type>  (77) 
Unknown

>  <Withdrawn Year>  (77) 
nan

>  <Withdrawn Reason>  (77) 
nan

>  <Withdrawn Country>  (77) 
nan

>  <Withdrawn Class>  (77) 
nan

>  <SMILES>  (77) 
O=c1[nH]c(=O)n([C@H]2C[C@H](F)[C@@H](CO)O2)cc1Cl

>  <InChi Key>  (77) 
WKVDSZYIGHLONN-RRKCRQDMSA-N

$$$$
CHEMBL3696475
     RDKit          2D

 34 38  0  0  0  0  0  0  0  0999 V2000
    2.1328    3.1443    0.0000 C   0  0  0  0  0  0  0  0  0  0  0  0
    0.7062    2.6807    0.0000 C   0  0  0  0  0  0  0  0  0  0  0  0
   -0.4086    3.6844    0.0000 C   0  0  0  0  0  0  0  0  0  0  0  0
   -0.0967    5.1517    0.0000 C   0  0  0  0  0  0  0  0  0  0  0  0
    1.3299    5.6152    0.0000 O   0  0  0  0  0  0  0  0  0  0  0  0
   -1.2114    6.1554    0.0000 C   0  0  0  0  0  0  0  0  0  0  0  0
   -0.8995    7.6226    0.0000 N   0  0  0  0  0  0  0  0  0  0  0  0
    0.5271    8.0861    0.0000 C   0  0  0  0  0  0  0  0  0  0  0  0
    0.8389    9.5533    0.0000 C   0  0  0  0  0  0  0  0  0  0  0  0
   -0.2758   10.5570    0.0000 N   0  0  0  0  0  0  0  0  0  0  0  0
    0.0361   12.0242    0.0000 C   0  0  0  0  0  0  0  0  0  0  0  0
    1.4627   12.4878    0.0000 C   0  0  0  0  0  0  0  0  0  0  0  0
    2.5774   11.4841    0.0000 O   0  0  0  0  0  0  0  0  0  0  0  0
    1.7745   13.9550    0.0000 C   0  0  0  0  0  0  0  0  0  0  0  0
    0.6598   14.9587    0.0000 C   0  0  0  0  0  0  0  0  0  0  0  0
    0.9717   16.4259    0.0000 C   0  0  0  0  0  0  0  0  0  0  0  0
    2.3983   16.8894    0.0000 C   0  0  0  0  0  0  0  0  0  0  0  0
    3.5130   15.8857    0.0000 C   0  0  0  0  0  0  0  0  0  0  0  0
    3.2011   14.4185    0.0000 C   0  0  0  0  0  0  0  0  0  0  0  0
    4.3158   13.4148    0.0000 C   0  0  0  0  0  0  0  0  0  0  0  0
    4.8120   16.6357    0.0000 C   0  0  0  0  0  0  0  0  0  0  0  0
    4.5001   18.1030    0.0000 O   0  0  0  0  0  0  0  0  0  0  0  0
    3.0084   18.2598    0.0000 C   0  0  0  0  0  0  0  0  0  0  0  0
    2.2584   19.5588    0.0000 O   0  0  0  0  0  0  0  0  0  0  0  0
   -1.7024   10.0935    0.0000 C   0  0  0  0  0  0  0  0  0  0  0  0
   -2.0143    8.6263    0.0000 C   0  0  0  0  0  0  0  0  0  0  0  0
   -1.8351    3.2209    0.0000 C   0  0  0  0  0  0  0  0  0  0  0  0
   -2.1470    1.7537    0.0000 C   0  0  0  0  0  0  0  0  0  0  0  0
   -1.0323    0.7500    0.0000 C   0  0  0  0  0  0  0  0  0  0  0  0
    0.3943    1.2135    0.0000 C   0  0  0  0  0  0  0  0  0  0  0  0
    1.2760    0.0000    0.0000 C   0  0  0  0  0  0  0  0  0  0  0  0
    0.3943   -1.2135    0.0000 O   0  0  0  0  0  0  0  0  0  0  0  0
   -1.0323   -0.7500    0.0000 C   0  0  0  0  0  0  0  0  0  0  0  0
   -2.2458   -1.6317    0.0000 O   0  0  0  0  0  0  0  0  0  0  0  0
  1  2  1  0
  2  3  2  0
  3  4  1  0
  4  5  1  0
  4  6  1  0
  6  7  1  0
  7  8  1  0
  8  9  1  0
  9 10  1  0
 10 11  1  0
 11 12  1  0
 12 13  2  0
 12 14  1  0
 14 15  2  0
 15 16  1  0
 16 17  2  0
 17 18  1  0
 18 19  2  0
 19 20  1  0
 18 21  1  0
 21 22  1  0
 22 23  1  0
 23 24  1  0
 10 25  1  0
 25 26  1  0
  3 27  1  0
 27 28  2  0
 28 29  1  0
 29 30  1  0
 30 31  2  0
 31 32  1  0
 32 33  1  0
 33 34  1  0
 30  2  1  0
 26  7  1  0
 33 29  2  0
 19 14  1  0
 23 17  1  0
M  END
>  <Synonyms>  (78) 
MK-7145

>  <Research Codes>  (78) 
nan

>  <Phase>  (78) 
1

>  <Applicants>  (78) 
nan

>  <USAN Stem>  (78) 
nan

>  <USAN Year>  (78) 
nan

>  <USAN Stem Definition>  (78) 
nan

>  <USAN Stem Substem>  (78) 
nan

>  <First Approval>  (78) 
nan

>  <ATC Codes>  (78) 
nan

>  <Level 4 ATC Codes>  (78) 
nan

>  <Level 3 ATC Codes>  (78) 
nan

>  <Level 2 ATC Codes>  (78) 
nan

>  <Level 1 ATC Codes>  (78) 
nan

>  <Indication Class>  (78) 
nan

>  <Patent>  (78) 
nan

>  <Drug Type>  (78) 
1:Synthetic Small Molecule

>  <Passes Rule of Five>  (78) 
True

>  <First In Class>  (78) 
False

>  <Chirality>  (78) 
Single Stereoisomer

>  <Prodrug>  (78) 
False

>  <Oral>  (78) 
False

>  <Parenteral>  (78) 
False

>  <Topical>  (78) 
False

>  <Black Box>  (78) 
False

>  <Availability Type>  (78) 
Unknown

>  <Withdrawn Year>  (78) 
nan

>  <Withdrawn Reason>  (78) 
nan

>  <Withdrawn Country>  (78) 
nan

>  <Withdrawn Class>  (78) 
nan

>  <SMILES>  (78) 
Cc1c([C@@H](O)CN2CCN(C[C@H](O)c3ccc4c(c3C)COC4=O)CC2)ccc2c1COC2=O

>  <InChi Key>  (78) 
MYWFQXWRSTVNKG-UHFFFAOYSA-N

$$$$
CHEMBL2381408
     RDKit          2D

 38 42  0  0  0  0  0  0  0  0999 V2000
   -2.9761    1.7051    0.0000 C   0  0  0  0  0  0  0  0  0  0  0  0
   -3.7261    0.4061    0.0000 C   0  0  0  0  0  0  0  0  0  0  0  0
   -4.4761   -0.8930    0.0000 C   0  0  0  0  0  0  0  0  0  0  0  0
   -5.0251    1.1561    0.0000 C   0  0  0  0  0  0  0  0  0  0  0  0
   -2.4271   -0.3439    0.0000 C   0  0  0  0  0  0  0  0  0  0  0  0
   -2.4271   -1.8439    0.0000 C   0  0  0  0  0  0  0  0  0  0  0  0
   -3.6406   -2.7256    0.0000 N   0  0  0  0  0  0  0  0  0  0  0  0
   -3.1771   -4.1522    0.0000 C   0  0  0  0  0  0  0  0  0  0  0  0
   -4.0587   -5.3657    0.0000 C   0  0  0  0  0  0  0  0  0  0  0  0
   -3.4486   -6.7361    0.0000 O   0  0  0  0  0  0  0  0  0  0  0  0
   -5.5505   -5.2089    0.0000 N   0  0  0  0  0  0  0  0  0  0  0  0
   -6.4322   -6.4225    0.0000 C   0  0  0  0  0  0  0  0  0  0  0  0
   -7.9240   -6.2657    0.0000 C   0  0  0  0  0  0  0  0  0  0  0  0
   -8.8057   -7.4792    0.0000 C   0  0  0  0  0  0  0  0  0  0  0  0
   -8.1955   -8.8495    0.0000 C   0  0  0  0  0  0  0  0  0  0  0  0
   -9.0772  -10.0630    0.0000 O   0  0  0  0  0  0  0  0  0  0  0  0
   -6.7038   -9.0063    0.0000 C   0  0  0  0  0  0  0  0  0  0  0  0
   -5.8221   -7.7928    0.0000 C   0  0  0  0  0  0  0  0  0  0  0  0
   -1.6771   -4.1522    0.0000 C   0  0  0  0  0  0  0  0  0  0  0  0
   -0.7954   -5.3657    0.0000 C   0  0  0  0  0  0  0  0  0  0  0  0
   -1.4055   -6.7361    0.0000 C   0  0  0  0  0  0  0  0  0  0  0  0
   -0.5238   -7.9496    0.0000 C   0  0  0  0  0  0  0  0  0  0  0  0
    0.9680   -7.7928    0.0000 C   0  0  0  0  0  0  0  0  0  0  0  0
    1.5781   -6.4225    0.0000 C   0  0  0  0  0  0  0  0  0  0  0  0
    3.0699   -6.2657    0.0000 Cl  0  0  0  0  0  0  0  0  0  0  0  0
    0.6964   -5.2089    0.0000 C   0  0  0  0  0  0  0  0  0  0  0  0
    1.3065   -3.8386    0.0000 F   0  0  0  0  0  0  0  0  0  0  0  0
   -1.2135   -2.7256    0.0000 C   0  0  0  0  0  0  0  0  0  0  0  0
   -0.0000   -3.6073    0.0000 C   0  0  0  0  0  0  0  0  0  0  0  0
    0.2143   -4.4667    0.0000 O   0  0  0  0  0  0  0  0  0  0  0  0
    1.2135   -2.7256    0.0000 N   0  0  0  0  0  0  0  0  0  0  0  0
    0.7500   -1.2990    0.0000 C   0  0  0  0  0  0  0  0  0  0  0  0
    1.5000    0.0000    0.0000 C   0  0  0  0  0  0  0  0  0  0  0  0
    0.7500    1.2990    0.0000 C   0  0  0  0  0  0  0  0  0  0  0  0
    1.5000    2.5981    0.0000 Cl  0  0  0  0  0  0  0  0  0  0  0  0
   -0.7500    1.2990    0.0000 C   0  0  0  0  0  0  0  0  0  0  0  0
   -1.5000    0.0000    0.0000 C   0  0  0  0  0  0  0  0  0  0  0  0
   -0.7500   -1.2990    0.0000 C   0  0  0  0  0  0  0  0  0  0  0  0
  1  2  1  0
  2  3  1  0
  2  4  1  0
  2  5  1  0
  6  5  1  1
  6  7  1  0
  7  8  1  0
  8  9  1  0
  9 10  2  0
  9 11  1  0
 12 11  1  6
 12 13  1  0
 13 14  1  0
 14 15  1  0
 15 16  1  1
 15 17  1  0
 17 18  1  0
  8 19  1  0
 19 20  1  0
 20 21  2  0
 21 22  1  0
 22 23  2  0
 23 24  1  0
 24 25  1  0
 24 26  2  0
 26 27  1  0
 28 19  1  6
 28 29  1  0
 29 30  2  0
 29 31  1  0
 31 32  1  0
 32 33  2  0
 33 34  1  0
 34 35  1  0
 34 36  2  0
 36 37  1  0
 37 38  2  0
 28  6  1  0
 38 32  1  0
 18 12  1  0
 26 20  1  0
 38 28  1  0
M  END
>  <Synonyms>  (79) 
MI-77301|SAR 405838|SAR-405838|SAR405838

>  <Research Codes>  (79) 
MI-77301|SAR405838

>  <Phase>  (79) 
1

>  <Applicants>  (79) 
nan

>  <USAN Stem>  (79) 
nan

>  <USAN Year>  (79) 
nan

>  <USAN Stem Definition>  (79) 
nan

>  <USAN Stem Substem>  (79) 
nan

>  <First Approval>  (79) 
nan

>  <ATC Codes>  (79) 
nan

>  <Level 4 ATC Codes>  (79) 
nan

>  <Level 3 ATC Codes>  (79) 
nan

>  <Level 2 ATC Codes>  (79) 
nan

>  <Level 1 ATC Codes>  (79) 
nan

>  <Indication Class>  (79) 
nan

>  <Patent>  (79) 
nan

>  <Drug Type>  (79) 
1:Synthetic Small Molecule

>  <Passes Rule of Five>  (79) 
False

>  <First In Class>  (79) 
False

>  <Chirality>  (79) 
Single Stereoisomer

>  <Prodrug>  (79) 
False

>  <Oral>  (79) 
False

>  <Parenteral>  (79) 
False

>  <Topical>  (79) 
False

>  <Black Box>  (79) 
False

>  <Availability Type>  (79) 
Unknown

>  <Withdrawn Year>  (79) 
nan

>  <Withdrawn Reason>  (79) 
nan

>  <Withdrawn Country>  (79) 
nan

>  <Withdrawn Class>  (79) 
nan

>  <SMILES>  (79) 
CC(C)(C)C[C@@H]1N[C@@H](C(=O)N[C@H]2CC[C@H](O)CC2)[C@H](c2cccc(Cl)c2F)[C@]12C(=O)Nc1cc(Cl)ccc12

>  <InChi Key>  (79) 
IDKAKZRYYDCJDU-OXBGTFBASA-N

$$$$
CHEMBL3633460
     RDKit          2D

 21 22  0  0  0  0  0  0  0  0999 V2000
    3.7500   -1.2990    0.0000 C   0  0  0  0  0  0  0  0  0  0  0  0
    3.0000    0.0000    0.0000 O   0  0  0  0  0  0  0  0  0  0  0  0
    1.5000    0.0000    0.0000 C   0  0  0  0  0  0  0  0  0  0  0  0
    0.7500   -1.2990    0.0000 C   0  0  0  0  0  0  0  0  0  0  0  0
   -0.7500   -1.2990    0.0000 C   0  0  0  0  0  0  0  0  0  0  0  0
   -1.5000    0.0000    0.0000 C   0  0  0  0  0  0  0  0  0  0  0  0
   -3.0000    0.0000    0.0000 Cl  0  0  0  0  0  0  0  0  0  0  0  0
   -0.7500    1.2990    0.0000 C   0  0  0  0  0  0  0  0  0  0  0  0
    0.7500    1.2990    0.0000 C   0  0  0  0  0  0  0  0  0  0  0  0
    1.5000    2.5981    0.0000 C   0  0  0  0  0  0  0  0  0  0  0  0
    3.0000    2.5981    0.0000 C   0  0  0  0  0  0  0  0  0  0  0  0
    3.7500    3.8971    0.0000 C   0  0  0  0  0  0  0  0  0  0  0  0
    5.2500    3.8971    0.0000 O   0  0  0  0  0  0  0  0  0  0  0  0
    3.0000    5.1962    0.0000 N   0  0  0  0  0  0  0  0  0  0  0  0
    1.5000    5.1962    0.0000 C   0  0  0  0  0  0  0  0  0  0  0  0
    0.7500    6.4952    0.0000 S   0  0  0  0  0  0  0  0  0  0  0  0
    0.7500    3.8971    0.0000 N   0  0  0  0  0  0  0  0  0  0  0  0
   -0.7500    3.8971    0.0000 C   0  0  0  0  0  0  0  0  0  0  0  0
   -1.5000    5.1962    0.0000 C   0  0  0  0  0  0  0  0  0  0  0  0
   -3.0000    5.1962    0.0000 N   0  0  0  0  0  0  0  0  0  0  0  0
   -0.7500    6.4952    0.0000 O   0  0  0  0  0  0  0  0  0  0  0  0
  1  2  1  0
  2  3  1  0
  3  4  2  0
  4  5  1  0
  5  6  2  0
  6  7  1  0
  6  8  1  0
  8  9  2  0
  9 10  1  0
 10 11  2  0
 11 12  1  0
 12 13  2  0
 12 14  1  0
 14 15  1  0
 15 16  2  0
 15 17  1  0
 17 18  1  0
 18 19  1  0
 19 20  1  0
 19 21  2  0
  9  3  1  0
 17 10  1  0
M  END
>  <Synonyms>  (80) 
PF-06282999

>  <Research Codes>  (80) 
nan

>  <Phase>  (80) 
1

>  <Applicants>  (80) 
nan

>  <USAN Stem>  (80) 
nan

>  <USAN Year>  (80) 
nan

>  <USAN Stem Definition>  (80) 
nan

>  <USAN Stem Substem>  (80) 
nan

>  <First Approval>  (80) 
nan

>  <ATC Codes>  (80) 
nan

>  <Level 4 ATC Codes>  (80) 
nan

>  <Level 3 ATC Codes>  (80) 
nan

>  <Level 2 ATC Codes>  (80) 
nan

>  <Level 1 ATC Codes>  (80) 
nan

>  <Indication Class>  (80) 
nan

>  <Patent>  (80) 
nan

>  <Drug Type>  (80) 
7:Natural Product-derived

>  <Passes Rule of Five>  (80) 
True

>  <First In Class>  (80) 
False

>  <Chirality>  (80) 
Achiral Molecule

>  <Prodrug>  (80) 
False

>  <Oral>  (80) 
False

>  <Parenteral>  (80) 
False

>  <Topical>  (80) 
False

>  <Black Box>  (80) 
False

>  <Availability Type>  (80) 
Unknown

>  <Withdrawn Year>  (80) 
nan

>  <Withdrawn Reason>  (80) 
nan

>  <Withdrawn Country>  (80) 
nan

>  <Withdrawn Class>  (80) 
nan

>  <SMILES>  (80) 
COc1ccc(Cl)cc1-c1cc(=O)[nH]c(=S)n1CC(N)=O

>  <InChi Key>  (80) 
ICYNYWFGIDGBRD-UHFFFAOYSA-N

$$$$
CHEMBL4217292
     RDKit          2D

 31 34  0  0  0  0  0  0  0  0999 V2000
    4.5000    0.0000    0.0000 N   0  0  0  0  0  0  0  0  0  0  0  0
    3.0000    0.0000    0.0000 C   0  0  0  0  0  0  0  0  0  0  0  0
    1.5000    0.0000    0.0000 C   0  0  0  0  0  0  0  0  0  0  0  0
    0.7500   -1.2990    0.0000 C   0  0  0  0  0  0  0  0  0  0  0  0
   -0.7500   -1.2990    0.0000 C   0  0  0  0  0  0  0  0  0  0  0  0
   -1.5000    0.0000    0.0000 C   0  0  0  0  0  0  0  0  0  0  0  0
   -3.0000    0.0000    0.0000 C   0  0  0  0  0  0  0  0  0  0  0  0
   -3.7500    1.2990    0.0000 N   0  0  0  0  0  0  0  0  0  0  0  0
   -5.2418    1.4558    0.0000 C   0  0  0  0  0  0  0  0  0  0  0  0
   -5.5537    2.9231    0.0000 C   0  0  0  0  0  0  0  0  0  0  0  0
   -4.2546    3.6731    0.0000 C   0  0  0  0  0  0  0  0  0  0  0  0
   -4.0978    5.1648    0.0000 N   0  0  0  0  0  0  0  0  0  0  0  0
   -2.7275    5.7749    0.0000 C   0  0  0  0  0  0  0  0  0  0  0  0
   -1.5140    4.8933    0.0000 O   0  0  0  0  0  0  0  0  0  0  0  0
   -2.5707    7.2667    0.0000 C   0  0  0  0  0  0  0  0  0  0  0  0
   -1.2004    7.8768    0.0000 C   0  0  0  0  0  0  0  0  0  0  0  0
    0.0131    6.9951    0.0000 C   0  0  0  0  0  0  0  0  0  0  0  0
    1.3835    7.6053    0.0000 C   0  0  0  0  0  0  0  0  0  0  0  0
    1.5402    9.0970    0.0000 C   0  0  0  0  0  0  0  0  0  0  0  0
    2.9106    9.7071    0.0000 C   0  0  0  0  0  0  0  0  0  0  0  0
    3.7494    8.4636    0.0000 C   0  0  0  0  0  0  0  0  0  0  0  0
    4.5881    7.2200    0.0000 F   0  0  0  0  0  0  0  0  0  0  0  0
    4.9929    9.3024    0.0000 F   0  0  0  0  0  0  0  0  0  0  0  0
    2.5058    7.6248    0.0000 F   0  0  0  0  0  0  0  0  0  0  0  0
    3.9896   10.7491    0.0000 C   0  0  0  0  0  0  0  0  0  0  0  0
    2.5477   11.1626    0.0000 C   0  0  0  0  0  0  0  0  0  0  0  0
    0.3267    9.9787    0.0000 C   0  0  0  0  0  0  0  0  0  0  0  0
   -1.0436    9.3686    0.0000 C   0  0  0  0  0  0  0  0  0  0  0  0
   -3.1399    2.6694    0.0000 N   0  0  0  0  0  0  0  0  0  0  0  0
   -0.7500    1.2990    0.0000 N   0  0  0  0  0  0  0  0  0  0  0  0
    0.7500    1.2990    0.0000 C   0  0  0  0  0  0  0  0  0  0  0  0
  1  2  3  0
  2  3  1  0
  3  4  2  0
  4  5  1  0
  5  6  2  0
  6  7  1  0
  7  8  1  0
  8  9  1  0
  9 10  2  0
 10 11  1  0
 11 12  2  3
 12 13  1  0
 13 14  2  0
 13 15  1  0
 15 16  1  0
 16 17  2  0
 17 18  1  0
 18 19  2  0
 19 20  1  0
 20 21  1  0
 21 22  1  0
 21 23  1  0
 21 24  1  0
 20 25  1  0
 25 26  1  0
 19 27  1  0
 27 28  2  0
 11 29  1  0
  6 30  1  0
 30 31  2  0
 31  3  1  0
 29  8  1  0
 28 16  1  0
 26 20  1  0
M  END
>  <Synonyms>  (81) 
ACT-709478

>  <Research Codes>  (81) 
ACT-709478

>  <Phase>  (81) 
1

>  <Applicants>  (81) 
nan

>  <USAN Stem>  (81) 
nan

>  <USAN Year>  (81) 
nan

>  <USAN Stem Definition>  (81) 
nan

>  <USAN Stem Substem>  (81) 
nan

>  <First Approval>  (81) 
nan

>  <ATC Codes>  (81) 
nan

>  <Level 4 ATC Codes>  (81) 
nan

>  <Level 3 ATC Codes>  (81) 
nan

>  <Level 2 ATC Codes>  (81) 
nan

>  <Level 1 ATC Codes>  (81) 
nan

>  <Indication Class>  (81) 
nan

>  <Patent>  (81) 
nan

>  <Drug Type>  (81) 
1:Synthetic Small Molecule

>  <Passes Rule of Five>  (81) 
True

>  <First In Class>  (81) 
False

>  <Chirality>  (81) 
Achiral Molecule

>  <Prodrug>  (81) 
False

>  <Oral>  (81) 
False

>  <Parenteral>  (81) 
False

>  <Topical>  (81) 
False

>  <Black Box>  (81) 
False

>  <Availability Type>  (81) 
Unknown

>  <Withdrawn Year>  (81) 
nan

>  <Withdrawn Reason>  (81) 
nan

>  <Withdrawn Country>  (81) 
nan

>  <Withdrawn Class>  (81) 
nan

>  <SMILES>  (81) 
N#Cc1ccc(Cn2ccc(NC(=O)Cc3ccc(C4(C(F)(F)F)CC4)cc3)n2)nc1

>  <InChi Key>  (81) 
LSYANGLAZUZYFX-UHFFFAOYSA-N

$$$$
CHEMBL4297269
     RDKit          2D

 39 41  0  0  0  0  0  0  0  0999 V2000
   -3.1476   -2.1380    0.0000 C   0  0  0  0  0  0  0  0  0  0  0  0
   -1.6852   -2.4718    0.0000 N   0  0  0  0  0  0  0  0  0  0  0  0
   -1.3515   -3.9342    0.0000 C   0  0  0  0  0  0  0  0  0  0  0  0
   -2.5242   -4.8694    0.0000 O   0  0  0  0  0  0  0  0  0  0  0  0
   -0.0000   -4.5850    0.0000 C   0  0  0  0  0  0  0  0  0  0  0  0
   -0.0000   -6.0850    0.0000 N   0  0  0  0  0  0  0  0  0  0  0  0
    1.2990   -6.8350    0.0000 C   0  0  0  0  0  0  0  0  0  0  0  0
    2.5981   -6.0850    0.0000 O   0  0  0  0  0  0  0  0  0  0  0  0
    1.2990   -8.3350    0.0000 C   0  0  0  0  0  0  0  0  0  0  0  0
    2.5981   -9.0850    0.0000 C   0  0  0  0  0  0  0  0  0  0  0  0
    2.5981  -10.5850    0.0000 C   0  0  0  0  0  0  0  0  0  0  0  0
    3.8971  -11.3350    0.0000 C   0  0  0  0  0  0  0  0  0  0  0  0
    5.1962  -12.0850    0.0000 F   0  0  0  0  0  0  0  0  0  0  0  0
    3.1471  -12.6340    0.0000 F   0  0  0  0  0  0  0  0  0  0  0  0
    4.6471  -10.0360    0.0000 F   0  0  0  0  0  0  0  0  0  0  0  0
   -0.0000   -9.0850    0.0000 C   0  0  0  0  0  0  0  0  0  0  0  0
   -0.0000  -10.5850    0.0000 C   0  0  0  0  0  0  0  0  0  0  0  0
   -1.2990  -11.3350    0.0000 C   0  0  0  0  0  0  0  0  0  0  0  0
   -1.2990  -12.8350    0.0000 C   0  0  0  0  0  0  0  0  0  0  0  0
   -1.2990  -14.3350    0.0000 F   0  0  0  0  0  0  0  0  0  0  0  0
   -2.7990  -12.8350    0.0000 F   0  0  0  0  0  0  0  0  0  0  0  0
    0.2010  -12.8350    0.0000 F   0  0  0  0  0  0  0  0  0  0  0  0
   -1.2990   -8.3350    0.0000 C   0  0  0  0  0  0  0  0  0  0  0  0
   -2.5981   -9.0850    0.0000 N   0  0  0  0  0  0  0  0  0  0  0  0
   -1.2990   -6.8350    0.0000 O   0  0  0  0  0  0  0  0  0  0  0  0
    1.3515   -3.9342    0.0000 N   0  0  0  0  0  0  0  0  0  0  0  0
    1.6852   -2.4718    0.0000 C   0  0  0  0  0  0  0  0  0  0  0  0
    3.1476   -2.1380    0.0000 C   0  0  0  0  0  0  0  0  0  0  0  0
    4.1679   -3.2376    0.0000 C   0  0  0  0  0  0  0  0  0  0  0  0
    5.6303   -2.9038    0.0000 C   0  0  0  0  0  0  0  0  0  0  0  0
    6.0724   -1.4704    0.0000 C   0  0  0  0  0  0  0  0  0  0  0  0
    5.0522   -0.3709    0.0000 C   0  0  0  0  0  0  0  0  0  0  0  0
    3.5898   -0.7046    0.0000 C   0  0  0  0  0  0  0  0  0  0  0  0
    0.7500   -1.2990    0.0000 C   0  0  0  0  0  0  0  0  0  0  0  0
    1.5000    0.0000    0.0000 C   0  0  0  0  0  0  0  0  0  0  0  0
    0.7500    1.2990    0.0000 C   0  0  0  0  0  0  0  0  0  0  0  0
   -0.7500    1.2990    0.0000 C   0  0  0  0  0  0  0  0  0  0  0  0
   -1.5000    0.0000    0.0000 C   0  0  0  0  0  0  0  0  0  0  0  0
   -0.7500   -1.2990    0.0000 C   0  0  0  0  0  0  0  0  0  0  0  0
  1  2  1  0
  2  3  1  0
  3  4  2  0
  3  5  1  0
  5  6  2  3
  6  7  1  0
  7  8  2  0
  7  9  1  0
  9 10  1  0
 10 11  1  0
 11 12  1  0
 12 13  1  0
 12 14  1  0
 12 15  1  0
  9 16  1  0
 16 17  1  0
 17 18  1  0
 18 19  1  0
 19 20  1  0
 19 21  1  0
 19 22  1  0
 16 23  1  0
 23 24  1  0
 23 25  1  0
  5 26  1  0
 26 27  2  0
 27 28  1  0
 28 29  2  0
 29 30  1  0
 30 31  2  0
 31 32  1  0
 32 33  2  0
 27 34  1  0
 34 35  2  0
 35 36  1  0
 36 37  2  0
 37 38  1  0
 38 39  2  0
 39  2  1  0
 33 28  1  0
 39 34  1  0
M  END
>  <Synonyms>  (82) 
BMS 906024|BMS-906024

>  <Research Codes>  (82) 
nan

>  <Phase>  (82) 
1

>  <Applicants>  (82) 
nan

>  <USAN Stem>  (82) 
nan

>  <USAN Year>  (82) 
nan

>  <USAN Stem Definition>  (82) 
nan

>  <USAN Stem Substem>  (82) 
nan

>  <First Approval>  (82) 
nan

>  <ATC Codes>  (82) 
nan

>  <Level 4 ATC Codes>  (82) 
nan

>  <Level 3 ATC Codes>  (82) 
nan

>  <Level 2 ATC Codes>  (82) 
nan

>  <Level 1 ATC Codes>  (82) 
nan

>  <Indication Class>  (82) 
nan

>  <Patent>  (82) 
nan

>  <Drug Type>  (82) 
1:Synthetic Small Molecule

>  <Passes Rule of Five>  (82) 
False

>  <First In Class>  (82) 
False

>  <Chirality>  (82) 
Single Stereoisomer

>  <Prodrug>  (82) 
False

>  <Oral>  (82) 
False

>  <Parenteral>  (82) 
False

>  <Topical>  (82) 
False

>  <Black Box>  (82) 
False

>  <Availability Type>  (82) 
Unknown

>  <Withdrawn Year>  (82) 
nan

>  <Withdrawn Reason>  (82) 
nan

>  <Withdrawn Country>  (82) 
nan

>  <Withdrawn Class>  (82) 
nan

>  <SMILES>  (82) 
CN1C(=O)[C@@H](NC(=O)[C@H](CCC(F)(F)F)[C@H](CCC(F)(F)F)C(N)=O)N=C(c2ccccc2)c2ccccc21

>  <InChi Key>  (82) 
YVDYVNVCEZNCJV-UHFFFAOYSA-N

$$$$
CHEMBL223520
     RDKit          2D

 33 35  0  0  0  0  0  0  0  0999 V2000
    3.7500   -1.2990    0.0000 N   0  0  0  0  0  0  0  0  0  0  0  0
    3.0000    0.0000    0.0000 C   0  0  0  0  0  0  0  0  0  0  0  0
    1.5000    0.0000    0.0000 C   0  0  0  0  0  0  0  0  0  0  0  0
    0.7500   -1.2990    0.0000 O   0  0  0  0  0  0  0  0  0  0  0  0
   -0.7500   -1.2990    0.0000 C   0  0  0  0  0  0  0  0  0  0  0  0
   -1.5000   -2.5981    0.0000 O   0  0  0  0  0  0  0  0  0  0  0  0
   -0.7500   -3.8971    0.0000 C   0  0  0  0  0  0  0  0  0  0  0  0
   -1.5000   -5.1962    0.0000 C   0  0  0  0  0  0  0  0  0  0  0  0
   -3.0000   -5.1962    0.0000 N   0  0  0  0  0  0  0  0  0  0  0  0
   -0.7500   -6.4952    0.0000 C   0  0  0  0  0  0  0  0  0  0  0  0
    0.7500   -6.4952    0.0000 C   0  0  0  0  0  0  0  0  0  0  0  0
    1.5000   -7.7942    0.0000 N   0  0  0  0  0  0  0  0  0  0  0  0
    1.5000   -5.1962    0.0000 C   0  0  0  0  0  0  0  0  0  0  0  0
    3.0000   -5.1962    0.0000 O   0  0  0  0  0  0  0  0  0  0  0  0
    3.7500   -6.4952    0.0000 C   0  0  0  0  0  0  0  0  0  0  0  0
    3.0000   -7.7942    0.0000 O   0  0  0  0  0  0  0  0  0  0  0  0
    3.7500   -9.0933    0.0000 C   0  0  0  0  0  0  0  0  0  0  0  0
    3.0000  -10.3923    0.0000 C   0  0  0  0  0  0  0  0  0  0  0  0
    1.5000  -10.3923    0.0000 O   0  0  0  0  0  0  0  0  0  0  0  0
    5.2500   -9.0933    0.0000 C   0  0  0  0  0  0  0  0  0  0  0  0
    6.0000  -10.3923    0.0000 O   0  0  0  0  0  0  0  0  0  0  0  0
    6.0000   -7.7942    0.0000 C   0  0  0  0  0  0  0  0  0  0  0  0
    7.5000   -7.7942    0.0000 N   0  0  0  0  0  0  0  0  0  0  0  0
    5.2500   -6.4952    0.0000 C   0  0  0  0  0  0  0  0  0  0  0  0
    6.0000   -5.1962    0.0000 O   0  0  0  0  0  0  0  0  0  0  0  0
    0.7500   -3.8971    0.0000 C   0  0  0  0  0  0  0  0  0  0  0  0
    1.5000   -2.5981    0.0000 O   0  0  0  0  0  0  0  0  0  0  0  0
   -1.5000    0.0000    0.0000 C   0  0  0  0  0  0  0  0  0  0  0  0
   -3.0000    0.0000    0.0000 O   0  0  0  0  0  0  0  0  0  0  0  0
   -0.7500    1.2990    0.0000 C   0  0  0  0  0  0  0  0  0  0  0  0
   -1.5000    2.5981    0.0000 O   0  0  0  0  0  0  0  0  0  0  0  0
    0.7500    1.2990    0.0000 C   0  0  0  0  0  0  0  0  0  0  0  0
    1.5000    2.5981    0.0000 O   0  0  0  0  0  0  0  0  0  0  0  0
  1  2  1  0
  3  2  1  6
  3  4  1  0
  4  5  1  0
  5  6  1  1
  7  6  1  1
  7  8  1  0
  8  9  1  6
  8 10  1  0
 10 11  1  0
 11 12  1  6
 11 13  1  0
 13 14  1  1
 15 14  1  6
 15 16  1  0
 16 17  1  0
 17 18  1  1
 18 19  1  0
 17 20  1  0
 20 21  1  6
 20 22  1  0
 22 23  1  1
 22 24  1  0
 24 25  1  6
 13 26  1  0
 26 27  1  6
  5 28  1  0
 28 29  1  1
 28 30  1  0
 30 31  1  6
 30 32  1  0
 32 33  1  1
 32  3  1  0
 26  7  1  0
 24 15  1  0
M  END
>  <Synonyms>  (83) 
KANAMYCIN A

>  <Research Codes>  (83) 
nan

>  <Phase>  (83) 
1

>  <Applicants>  (83) 
nan

>  <USAN Stem>  (83) 
'-mycin'

>  <USAN Year>  (83) 
nan

>  <USAN Stem Definition>  (83) 
antibiotics (Streptomyces strains)

>  <USAN Stem Substem>  (83) 
'-mycin(-mycin)'

>  <First Approval>  (83) 
nan

>  <ATC Codes>  (83) 
nan

>  <Level 4 ATC Codes>  (83) 
nan

>  <Level 3 ATC Codes>  (83) 
nan

>  <Level 2 ATC Codes>  (83) 
nan

>  <Level 1 ATC Codes>  (83) 
nan

>  <Indication Class>  (83) 
nan

>  <Patent>  (83) 
nan

>  <Drug Type>  (83) 
7:Natural Product-derived

>  <Passes Rule of Five>  (83) 
False

>  <First In Class>  (83) 
False

>  <Chirality>  (83) 
Single Stereoisomer

>  <Prodrug>  (83) 
False

>  <Oral>  (83) 
False

>  <Parenteral>  (83) 
False

>  <Topical>  (83) 
False

>  <Black Box>  (83) 
False

>  <Availability Type>  (83) 
Unknown

>  <Withdrawn Year>  (83) 
nan

>  <Withdrawn Reason>  (83) 
nan

>  <Withdrawn Country>  (83) 
nan

>  <Withdrawn Class>  (83) 
nan

>  <SMILES>  (83) 
NC[C@@H]1O[C@@H](O[C@@H]2[C@@H](N)C[C@@H](N)[C@H](O[C@H]3O[C@H](CO)[C@@H](O)[C@H](N)[C@H]3O)[C@H]2O)[C@@H](O)[C@H](O)[C@H]1O

>  <InChi Key>  (83) 
SBUJHOSQTJFQJX-KSACQAOKSA-N

$$$$
CHEMBL4300154
     RDKit          2D

 28 31  0  0  0  0  0  0  0  0999 V2000
    1.5342   -9.4474    0.0000 O   0  0  0  0  0  0  0  0  0  0  0  0
    0.3207   -8.5658    0.0000 C   0  0  0  0  0  0  0  0  0  0  0  0
    0.4775   -7.0740    0.0000 N   0  0  0  0  0  0  0  0  0  0  0  0
    1.8478   -6.4639    0.0000 C   0  0  0  0  0  0  0  0  0  0  0  0
    2.0046   -4.9721    0.0000 C   0  0  0  0  0  0  0  0  0  0  0  0
    0.8899   -3.9684    0.0000 C   0  0  0  0  0  0  0  0  0  0  0  0
    1.5000   -2.5981    0.0000 N   0  0  0  0  0  0  0  0  0  0  0  0
    0.7500   -1.2990    0.0000 C   0  0  0  0  0  0  0  0  0  0  0  0
    1.5000    0.0000    0.0000 C   0  0  0  0  0  0  0  0  0  0  0  0
    0.7500    1.2990    0.0000 C   0  0  0  0  0  0  0  0  0  0  0  0
   -0.7500    1.2990    0.0000 C   0  0  0  0  0  0  0  0  0  0  0  0
   -1.5000    2.5981    0.0000 N   0  0  0  0  0  0  0  0  0  0  0  0
   -0.7500    3.8971    0.0000 C   0  0  0  0  0  0  0  0  0  0  0  0
   -1.5000    5.1962    0.0000 C   0  0  0  0  0  0  0  0  0  0  0  0
   -3.0000    5.1962    0.0000 N   0  0  0  0  0  0  0  0  0  0  0  0
   -3.7500    3.8971    0.0000 C   0  0  0  0  0  0  0  0  0  0  0  0
   -3.0000    2.5981    0.0000 N   0  0  0  0  0  0  0  0  0  0  0  0
   -1.5000    0.0000    0.0000 C   0  0  0  0  0  0  0  0  0  0  0  0
   -0.7500   -1.2990    0.0000 C   0  0  0  0  0  0  0  0  0  0  0  0
    2.9918   -2.7549    0.0000 C   0  0  0  0  0  0  0  0  0  0  0  0
    3.9955   -1.6402    0.0000 O   0  0  0  0  0  0  0  0  0  0  0  0
    3.3037   -4.2221    0.0000 O   0  0  0  0  0  0  0  0  0  0  0  0
   -1.0496   -9.1759    0.0000 C   0  0  0  0  0  0  0  0  0  0  0  0
   -1.3615  -10.6431    0.0000 C   0  0  0  0  0  0  0  0  0  0  0  0
   -2.8533  -10.7999    0.0000 C   0  0  0  0  0  0  0  0  0  0  0  0
   -3.4634   -9.4296    0.0000 C   0  0  0  0  0  0  0  0  0  0  0  0
   -4.9306   -9.1177    0.0000 Cl  0  0  0  0  0  0  0  0  0  0  0  0
   -2.3486   -8.4259    0.0000 S   0  0  0  0  0  0  0  0  0  0  0  0
  1  2  2  0
  2  3  1  0
  3  4  1  0
  5  4  1  1
  5  6  1  0
  6  7  1  0
  7  8  1  0
  8  9  2  0
  9 10  1  0
 10 11  2  0
 11 12  1  0
 12 13  1  0
 13 14  1  0
 14 15  1  0
 15 16  2  0
 16 17  1  0
 11 18  1  0
 18 19  2  0
  7 20  1  0
 20 21  2  0
 20 22  1  0
  2 23  1  0
 23 24  2  0
 24 25  1  0
 25 26  2  0
 26 27  1  0
 26 28  1  0
 22  5  1  0
 28 23  1  0
 19  8  1  0
 17 12  1  0
M  END
>  <Synonyms>  (84) 
nan

>  <Research Codes>  (84) 
nan

>  <Phase>  (84) 
1

>  <Applicants>  (84) 
nan

>  <USAN Stem>  (84) 
nan

>  <USAN Year>  (84) 
nan

>  <USAN Stem Definition>  (84) 
nan

>  <USAN Stem Substem>  (84) 
nan

>  <First Approval>  (84) 
nan

>  <ATC Codes>  (84) 
nan

>  <Level 4 ATC Codes>  (84) 
nan

>  <Level 3 ATC Codes>  (84) 
nan

>  <Level 2 ATC Codes>  (84) 
nan

>  <Level 1 ATC Codes>  (84) 
nan

>  <Indication Class>  (84) 
nan

>  <Patent>  (84) 
nan

>  <Drug Type>  (84) 
1:Synthetic Small Molecule

>  <Passes Rule of Five>  (84) 
True

>  <First In Class>  (84) 
False

>  <Chirality>  (84) 
Single Stereoisomer

>  <Prodrug>  (84) 
False

>  <Oral>  (84) 
False

>  <Parenteral>  (84) 
False

>  <Topical>  (84) 
False

>  <Black Box>  (84) 
False

>  <Availability Type>  (84) 
Unknown

>  <Withdrawn Year>  (84) 
nan

>  <Withdrawn Reason>  (84) 
nan

>  <Withdrawn Country>  (84) 
nan

>  <Withdrawn Class>  (84) 
nan

>  <SMILES>  (84) 
O=C(NC[C@H]1CN(c2ccc(N3CCNC=N3)cc2)C(=O)O1)c1ccc(Cl)s1

>  <InChi Key>  (84) 
ZFDKSINSDZTWFU-AWEZNQCLSA-N

$$$$
CHEMBL4297584
     RDKit          2D

 31 35  0  0  0  0  0  0  0  0999 V2000
    3.7500   -3.8971    0.0000 C   0  0  0  0  0  0  0  0  0  0  0  0
    3.0000   -5.1962    0.0000 C   0  0  0  0  0  0  0  0  0  0  0  0
    1.5000   -5.1962    0.0000 C   0  0  0  0  0  0  0  0  0  0  0  0
    0.7500   -6.4952    0.0000 N   0  0  0  0  0  0  0  0  0  0  0  0
    1.5000   -7.7942    0.0000 C   0  0  0  0  0  0  0  0  0  0  0  0
    0.7500   -9.0933    0.0000 N   0  0  0  0  0  0  0  0  0  0  0  0
    1.5000  -10.3923    0.0000 C   0  0  0  0  0  0  0  0  0  0  0  0
    3.0000  -10.3923    0.0000 N   0  0  0  0  0  0  0  0  0  0  0  0
    3.7500   -9.0933    0.0000 C   0  0  0  0  0  0  0  0  0  0  0  0
    5.2172   -8.7814    0.0000 N   0  0  0  0  0  0  0  0  0  0  0  0
    5.3740   -7.2896    0.0000 C   0  0  0  0  0  0  0  0  0  0  0  0
    4.0037   -6.6795    0.0000 N   0  0  0  0  0  0  0  0  0  0  0  0
    3.0000   -7.7942    0.0000 C   0  0  0  0  0  0  0  0  0  0  0  0
    0.7500   -3.8971    0.0000 C   0  0  0  0  0  0  0  0  0  0  0  0
    1.5000   -2.5981    0.0000 O   0  0  0  0  0  0  0  0  0  0  0  0
    0.7500   -1.2990    0.0000 C   0  0  0  0  0  0  0  0  0  0  0  0
    1.5000    0.0000    0.0000 C   0  0  0  0  0  0  0  0  0  0  0  0
    0.7500    1.2990    0.0000 C   0  0  0  0  0  0  0  0  0  0  0  0
   -0.7500    1.2990    0.0000 C   0  0  0  0  0  0  0  0  0  0  0  0
   -1.5000    0.0000    0.0000 C   0  0  0  0  0  0  0  0  0  0  0  0
   -0.7500   -1.2990    0.0000 C   0  0  0  0  0  0  0  0  0  0  0  0
   -1.5000   -2.5981    0.0000 C   0  0  0  0  0  0  0  0  0  0  0  0
   -3.0000   -2.5981    0.0000 O   0  0  0  0  0  0  0  0  0  0  0  0
   -0.7500   -3.8971    0.0000 C   0  0  0  0  0  0  0  0  0  0  0  0
   -1.5000   -5.1962    0.0000 C   0  0  0  0  0  0  0  0  0  0  0  0
   -3.0000   -5.1962    0.0000 C   0  0  0  0  0  0  0  0  0  0  0  0
   -3.7500   -6.4952    0.0000 C   0  0  0  0  0  0  0  0  0  0  0  0
   -3.0000   -7.7942    0.0000 C   0  0  0  0  0  0  0  0  0  0  0  0
   -1.5000   -7.7942    0.0000 C   0  0  0  0  0  0  0  0  0  0  0  0
   -0.7500   -9.0933    0.0000 F   0  0  0  0  0  0  0  0  0  0  0  0
   -0.7500   -6.4952    0.0000 C   0  0  0  0  0  0  0  0  0  0  0  0
  1  2  1  0
  3  2  1  6
  3  4  1  0
  4  5  2  3
  5  6  1  0
  6  7  1  0
  7  8  2  0
  8  9  1  0
  9 10  1  0
 10 11  1  0
 11 12  2  0
 12 13  1  0
  3 14  1  0
 14 15  1  0
 15 16  1  0
 16 17  2  0
 17 18  1  0
 18 19  2  0
 19 20  1  0
 20 21  2  0
 21 22  1  0
 22 23  2  0
 22 24  1  0
 24 25  1  0
 25 26  2  0
 26 27  1  0
 27 28  2  0
 28 29  1  0
 29 30  1  0
 29 31  2  0
 13  5  1  0
 24 14  2  0
 31 25  1  0
 13  9  2  0
 21 16  1  0
M  END
>  <Synonyms>  (85) 
TENALISIB

>  <Research Codes>  (85) 
nan

>  <Phase>  (85) 
1

>  <Applicants>  (85) 
nan

>  <USAN Stem>  (85) 
'-lisib; -nal-'

>  <USAN Year>  (85) 
nan

>  <USAN Stem Definition>  (85) 
phosphatidylinositol 3-kinase inhibitors; narcotic agonists/antagonists (normorphine type)

>  <USAN Stem Substem>  (85) 
'-lisib(-lisib); -nal-(-nal-)'

>  <First Approval>  (85) 
nan

>  <ATC Codes>  (85) 
nan

>  <Level 4 ATC Codes>  (85) 
nan

>  <Level 3 ATC Codes>  (85) 
nan

>  <Level 2 ATC Codes>  (85) 
nan

>  <Level 1 ATC Codes>  (85) 
nan

>  <Indication Class>  (85) 
nan

>  <Patent>  (85) 
nan

>  <Drug Type>  (85) 
1:Synthetic Small Molecule

>  <Passes Rule of Five>  (85) 
True

>  <First In Class>  (85) 
False

>  <Chirality>  (85) 
Single Stereoisomer

>  <Prodrug>  (85) 
False

>  <Oral>  (85) 
False

>  <Parenteral>  (85) 
False

>  <Topical>  (85) 
False

>  <Black Box>  (85) 
False

>  <Availability Type>  (85) 
Unknown

>  <Withdrawn Year>  (85) 
nan

>  <Withdrawn Reason>  (85) 
nan

>  <Withdrawn Country>  (85) 
nan

>  <Withdrawn Class>  (85) 
nan

>  <SMILES>  (85) 
CC[C@H](Nc1ncnc2[nH]cnc12)c1oc2ccccc2c(=O)c1-c1cccc(F)c1

>  <InChi Key>  (85) 
HDXDQPRPFRKGKZ-INIZCTEOSA-N

$$$$
CHEMBL4297459
     RDKit          2D

 26 29  0  0  0  0  0  0  0  0999 V2000
    0.0000   -9.6073    0.0000 O   0  0  0  0  0  0  0  0  0  0  0  0
    0.0000   -8.1073    0.0000 C   0  0  0  0  0  0  0  0  0  0  0  0
   -1.2990   -7.3573    0.0000 C   0  0  0  0  0  0  0  0  0  0  0  0
   -1.2990   -5.8573    0.0000 C   0  0  0  0  0  0  0  0  0  0  0  0
    0.0000   -5.1073    0.0000 C   0  0  0  0  0  0  0  0  0  0  0  0
    0.0000   -3.6073    0.0000 N   0  0  0  0  0  0  0  0  0  0  0  0
    1.2135   -2.7256    0.0000 C   0  0  0  0  0  0  0  0  0  0  0  0
    2.6401   -3.1891    0.0000 O   0  0  0  0  0  0  0  0  0  0  0  0
    0.7500   -1.2990    0.0000 C   0  0  0  0  0  0  0  0  0  0  0  0
    1.5000    0.0000    0.0000 C   0  0  0  0  0  0  0  0  0  0  0  0
    0.7500    1.2990    0.0000 C   0  0  0  0  0  0  0  0  0  0  0  0
   -0.7500    1.2990    0.0000 C   0  0  0  0  0  0  0  0  0  0  0  0
   -1.5000    0.0000    0.0000 C   0  0  0  0  0  0  0  0  0  0  0  0
   -3.0000    0.0000    0.0000 C   0  0  0  0  0  0  0  0  0  0  0  0
   -3.7500    1.2990    0.0000 N   0  0  0  0  0  0  0  0  0  0  0  0
   -5.2500    1.2990    0.0000 C   0  0  0  0  0  0  0  0  0  0  0  0
   -6.0000   -0.0000    0.0000 O   0  0  0  0  0  0  0  0  0  0  0  0
   -6.0000    2.5981    0.0000 C   0  0  0  0  0  0  0  0  0  0  0  0
   -7.2990    3.3481    0.0000 C   0  0  0  0  0  0  0  0  0  0  0  0
   -6.0000    4.0981    0.0000 C   0  0  0  0  0  0  0  0  0  0  0  0
   -0.7500   -1.2990    0.0000 C   0  0  0  0  0  0  0  0  0  0  0  0
   -1.2135   -2.7256    0.0000 C   0  0  0  0  0  0  0  0  0  0  0  0
   -2.6401   -3.1891    0.0000 O   0  0  0  0  0  0  0  0  0  0  0  0
    1.2990   -5.8573    0.0000 C   0  0  0  0  0  0  0  0  0  0  0  0
    2.5981   -5.1073    0.0000 O   0  0  0  0  0  0  0  0  0  0  0  0
    1.2990   -7.3573    0.0000 N   0  0  0  0  0  0  0  0  0  0  0  0
  1  2  2  0
  2  3  1  0
  3  4  1  0
  4  5  1  0
  5  6  1  0
  6  7  1  0
  7  8  2  0
  7  9  1  0
  9 10  2  0
 10 11  1  0
 11 12  2  0
 12 13  1  0
 13 14  1  0
 14 15  1  0
 15 16  1  0
 16 17  2  0
 16 18  1  0
 18 19  1  0
 19 20  1  0
 13 21  2  0
 21 22  1  0
 22 23  2  0
  5 24  1  0
 24 25  2  0
 24 26  1  0
 26  2  1  0
 22  6  1  0
 21  9  1  0
 20 18  1  0
M  END
>  <Synonyms>  (86) 
CC 11006|CC-11006

>  <Research Codes>  (86) 
CC 11006|CC-11006

>  <Phase>  (86) 
1

>  <Applicants>  (86) 
nan

>  <USAN Stem>  (86) 
nan

>  <USAN Year>  (86) 
nan

>  <USAN Stem Definition>  (86) 
nan

>  <USAN Stem Substem>  (86) 
nan

>  <First Approval>  (86) 
nan

>  <ATC Codes>  (86) 
nan

>  <Level 4 ATC Codes>  (86) 
nan

>  <Level 3 ATC Codes>  (86) 
nan

>  <Level 2 ATC Codes>  (86) 
nan

>  <Level 1 ATC Codes>  (86) 
nan

>  <Indication Class>  (86) 
nan

>  <Patent>  (86) 
nan

>  <Drug Type>  (86) 
1:Synthetic Small Molecule

>  <Passes Rule of Five>  (86) 
True

>  <First In Class>  (86) 
False

>  <Chirality>  (86) 
Racemic Mixture

>  <Prodrug>  (86) 
False

>  <Oral>  (86) 
False

>  <Parenteral>  (86) 
False

>  <Topical>  (86) 
False

>  <Black Box>  (86) 
False

>  <Availability Type>  (86) 
Unknown

>  <Withdrawn Year>  (86) 
nan

>  <Withdrawn Reason>  (86) 
nan

>  <Withdrawn Country>  (86) 
nan

>  <Withdrawn Class>  (86) 
nan

>  <SMILES>  (86) 
O=C1CCC(N2C(=O)c3cccc(CNC(=O)C4CC4)c3C2=O)C(=O)N1

>  <InChi Key>  (86) 
ZBXHNCURDISBRO-UHFFFAOYSA-N

$$$$
CHEMBL4297469
     RDKit          2D

 51 55  0  0  0  0  0  0  0  0999 V2000
    3.0000    0.0000    0.0000 C   0  0  0  0  0  0  0  0  0  0  0  0
    1.5000    0.0000    0.0000 C   0  0  0  0  0  0  0  0  0  0  0  0
    0.7500   -1.2990    0.0000 C   0  0  0  0  0  0  0  0  0  0  0  0
   -0.7500   -1.2990    0.0000 C   0  0  0  0  0  0  0  0  0  0  0  0
   -1.5000   -2.5981    0.0000 C   0  0  0  0  0  0  0  0  0  0  0  0
   -1.5000    0.0000    0.0000 C   0  0  0  0  0  0  0  0  0  0  0  0
   -3.0000    0.0000    0.0000 C   0  0  0  0  0  0  0  0  0  0  0  0
   -3.7500    1.2990    0.0000 C   0  0  0  0  0  0  0  0  0  0  0  0
   -5.2500    1.2990    0.0000 C   0  0  0  0  0  0  0  0  0  0  0  0
   -6.0000    0.0000    0.0000 C   0  0  0  0  0  0  0  0  0  0  0  0
   -7.5000    0.0000    0.0000 N   0  0  0  0  0  0  0  0  0  0  0  0
   -8.2500    1.2990    0.0000 C   0  0  0  0  0  0  0  0  0  0  0  0
   -7.5000    2.5981    0.0000 O   0  0  0  0  0  0  0  0  0  0  0  0
   -9.7500    1.2990    0.0000 C   0  0  0  0  0  0  0  0  0  0  0  0
  -10.5000    2.5981    0.0000 C   0  0  0  0  0  0  0  0  0  0  0  0
  -12.0000    2.5981    0.0000 C   0  0  0  0  0  0  0  0  0  0  0  0
  -12.7500    3.8971    0.0000 C   0  0  0  0  0  0  0  0  0  0  0  0
  -14.2500    3.8971    0.0000 C   0  0  0  0  0  0  0  0  0  0  0  0
  -15.0000    2.5981    0.0000 C   0  0  0  0  0  0  0  0  0  0  0  0
  -16.5000    2.5981    0.0000 C   0  0  0  0  0  0  0  0  0  0  0  0
  -17.2500    1.2990    0.0000 O   0  0  0  0  0  0  0  0  0  0  0  0
  -17.2500    3.8971    0.0000 N   0  0  0  0  0  0  0  0  0  0  0  0
  -18.7500    3.8971    0.0000 C   0  0  0  0  0  0  0  0  0  0  0  0
  -19.5000    5.1962    0.0000 C   0  0  0  0  0  0  0  0  0  0  0  0
  -21.0000    5.1962    0.0000 S   0  0  0  0  0  0  0  0  0  0  0  0
  -22.5000    5.1962    0.0000 O   0  0  0  0  0  0  0  0  0  0  0  0
  -21.0000    6.6962    0.0000 O   0  0  0  0  0  0  0  0  0  0  0  0
  -21.0000    3.6962    0.0000 O   0  0  0  0  0  0  0  0  0  0  0  0
  -14.2500    1.2990    0.0000 C   0  0  0  0  0  0  0  0  0  0  0  0
  -12.7500    1.2990    0.0000 C   0  0  0  0  0  0  0  0  0  0  0  0
  -10.5000    0.0000    0.0000 C   0  0  0  0  0  0  0  0  0  0  0  0
  -12.0000   -0.0000    0.0000 C   0  0  0  0  0  0  0  0  0  0  0  0
  -12.7500   -1.2990    0.0000 C   0  0  0  0  0  0  0  0  0  0  0  0
  -12.0000   -2.5981    0.0000 C   0  0  0  0  0  0  0  0  0  0  0  0
  -12.7500   -3.8971    0.0000 C   0  0  0  0  0  0  0  0  0  0  0  0
  -14.2500   -3.8971    0.0000 C   0  0  0  0  0  0  0  0  0  0  0  0
  -15.0000   -5.1962    0.0000 C   0  0  0  0  0  0  0  0  0  0  0  0
  -14.2500   -6.4952    0.0000 C   0  0  0  0  0  0  0  0  0  0  0  0
  -15.0000   -7.7942    0.0000 C   0  0  0  0  0  0  0  0  0  0  0  0
  -16.2990   -7.0442    0.0000 C   0  0  0  0  0  0  0  0  0  0  0  0
  -13.7010   -8.5442    0.0000 C   0  0  0  0  0  0  0  0  0  0  0  0
  -15.7500   -9.0933    0.0000 C   0  0  0  0  0  0  0  0  0  0  0  0
  -12.7500   -6.4952    0.0000 C   0  0  0  0  0  0  0  0  0  0  0  0
  -12.0000   -5.1962    0.0000 C   0  0  0  0  0  0  0  0  0  0  0  0
  -10.5000   -2.5981    0.0000 C   0  0  0  0  0  0  0  0  0  0  0  0
   -9.7500   -1.2990    0.0000 C   0  0  0  0  0  0  0  0  0  0  0  0
   -5.2500   -1.2990    0.0000 C   0  0  0  0  0  0  0  0  0  0  0  0
   -3.7500   -1.2990    0.0000 C   0  0  0  0  0  0  0  0  0  0  0  0
   -0.7500    1.2990    0.0000 C   0  0  0  0  0  0  0  0  0  0  0  0
   -1.5000    2.5981    0.0000 C   0  0  0  0  0  0  0  0  0  0  0  0
    0.7500    1.2990    0.0000 C   0  0  0  0  0  0  0  0  0  0  0  0
  1  2  1  0
  2  3  2  0
  3  4  1  0
  4  5  1  0
  4  6  2  0
  6  7  1  0
  7  8  2  0
  8  9  1  0
  9 10  2  0
 10 11  1  0
 11 12  1  0
 12 13  2  0
 12 14  1  0
 14 15  1  0
 15 16  1  0
 16 17  2  0
 17 18  1  0
 18 19  2  0
 19 20  1  0
 20 21  2  0
 20 22  1  0
 22 23  1  0
 23 24  1  0
 24 25  1  0
 25 26  2  0
 25 27  2  0
 25 28  1  0
 19 29  1  0
 29 30  2  0
 14 31  1  0
 31 32  2  0
 32 33  1  0
 33 34  2  0
 34 35  1  0
 35 36  2  0
 36 37  1  0
 37 38  2  0
 38 39  1  0
 39 40  1  0
 39 41  1  0
 39 42  1  0
 38 43  1  0
 43 44  2  0
 34 45  1  0
 45 46  2  0
 10 47  1  0
 47 48  2  0
  6 49  1  0
 49 50  1  0
 49 51  2  0
 51  2  1  0
 48  7  1  0
 30 16  1  0
 46 31  1  0
 44 35  1  0
M  END
>  <Synonyms>  (87) 
LGD-6972|MB-11262

>  <Research Codes>  (87) 
LGD-6972|MB-11262

>  <Phase>  (87) 
1

>  <Applicants>  (87) 
nan

>  <USAN Stem>  (87) 
nan

>  <USAN Year>  (87) 
nan

>  <USAN Stem Definition>  (87) 
nan

>  <USAN Stem Substem>  (87) 
nan

>  <First Approval>  (87) 
nan

>  <ATC Codes>  (87) 
nan

>  <Level 4 ATC Codes>  (87) 
nan

>  <Level 3 ATC Codes>  (87) 
nan

>  <Level 2 ATC Codes>  (87) 
nan

>  <Level 1 ATC Codes>  (87) 
nan

>  <Indication Class>  (87) 
nan

>  <Patent>  (87) 
nan

>  <Drug Type>  (87) 
1:Synthetic Small Molecule

>  <Passes Rule of Five>  (87) 
False

>  <First In Class>  (87) 
False

>  <Chirality>  (87) 
Single Stereoisomer

>  <Prodrug>  (87) 
False

>  <Oral>  (87) 
False

>  <Parenteral>  (87) 
False

>  <Topical>  (87) 
False

>  <Black Box>  (87) 
False

>  <Availability Type>  (87) 
Unknown

>  <Withdrawn Year>  (87) 
nan

>  <Withdrawn Reason>  (87) 
nan

>  <Withdrawn Country>  (87) 
nan

>  <Withdrawn Class>  (87) 
nan

>  <SMILES>  (87) 
Cc1cc(C)c(-c2ccc(NC(=O)[C@H](Cc3ccc(C(=O)NCCS(=O)(=O)O)cc3)c3ccc(-c4ccc(C(C)(C)C)cc4)cc3)cc2)c(C)c1

>  <InChi Key>  (87) 
HKJMCBYPVCGZFB-UHFFFAOYSA-N

$$$$
CHEMBL4297474
     RDKit          2D

 32 35  0  0  0  0  0  0  0  0999 V2000
    0.7500   -3.8971    0.0000 C   0  0  0  0  0  0  0  0  0  0  0  0
    1.5000   -2.5981    0.0000 C   0  0  0  0  0  0  0  0  0  0  0  0
    3.0000   -2.5981    0.0000 O   0  0  0  0  0  0  0  0  0  0  0  0
    3.7500   -3.8971    0.0000 P   0  0  0  0  0  0  0  0  0  0  0  0
    4.5000   -5.1962    0.0000 O   0  0  0  0  0  0  0  0  0  0  0  0
    5.0490   -3.1471    0.0000 N   0  0  0  0  0  0  0  0  0  0  0  0
    5.7990   -1.8481    0.0000 C   0  0  0  0  0  0  0  0  0  0  0  0
    6.5490   -3.1471    0.0000 C   0  0  0  0  0  0  0  0  0  0  0  0
    2.4510   -4.6471    0.0000 N   0  0  0  0  0  0  0  0  0  0  0  0
    1.7010   -5.9462    0.0000 C   0  0  0  0  0  0  0  0  0  0  0  0
    0.9510   -4.6471    0.0000 C   0  0  0  0  0  0  0  0  0  0  0  0
    0.7500   -1.2990    0.0000 C   0  0  0  0  0  0  0  0  0  0  0  0
    1.5000    0.0000    0.0000 C   0  0  0  0  0  0  0  0  0  0  0  0
    0.7500    1.2990    0.0000 C   0  0  0  0  0  0  0  0  0  0  0  0
   -0.7500    1.2990    0.0000 C   0  0  0  0  0  0  0  0  0  0  0  0
   -1.5000    2.5981    0.0000 N   0  0  0  0  0  4  0  0  0  0  0  0
   -3.0000    2.5981    0.0000 O   0  0  0  0  0  0  0  0  0  0  0  0
   -0.7500    3.8971    0.0000 O   0  0  0  0  0  1  0  0  0  0  0  0
   -1.5000    0.0000    0.0000 C   0  0  0  0  0  0  0  0  0  0  0  0
   -3.0000    0.0000    0.0000 O   0  0  0  0  0  0  0  0  0  0  0  0
   -3.7500   -1.2990    0.0000 C   0  0  0  0  0  0  0  0  0  0  0  0
   -5.2500   -1.2990    0.0000 C   0  0  0  0  0  0  0  0  0  0  0  0
   -6.0000   -2.5981    0.0000 C   0  0  0  0  0  0  0  0  0  0  0  0
   -5.2500   -3.8971    0.0000 C   0  0  0  0  0  0  0  0  0  0  0  0
   -3.7500   -3.8971    0.0000 C   0  0  0  0  0  0  0  0  0  0  0  0
   -3.0000   -5.1962    0.0000 C   0  0  0  0  0  0  0  0  0  0  0  0
   -1.5000   -5.1962    0.0000 O   0  0  0  0  0  0  0  0  0  0  0  0
   -3.7500   -6.4952    0.0000 N   0  0  0  0  0  0  0  0  0  0  0  0
   -3.0000   -7.7942    0.0000 C   0  0  0  0  0  0  0  0  0  0  0  0
   -5.2500   -6.4952    0.0000 C   0  0  0  0  0  0  0  0  0  0  0  0
   -3.0000   -2.5981    0.0000 C   0  0  0  0  0  0  0  0  0  0  0  0
   -0.7500   -1.2990    0.0000 C   0  0  0  0  0  0  0  0  0  0  0  0
  2  1  1  6
  2  3  1  0
  3  4  1  0
  4  5  2  0
  4  6  1  0
  6  7  1  0
  7  8  1  0
  4  9  1  0
  9 10  1  0
 10 11  1  0
  2 12  1  0
 12 13  2  0
 13 14  1  0
 14 15  2  0
 15 16  1  0
 16 17  2  0
 16 18  1  0
 15 19  1  0
 19 20  1  0
 20 21  1  0
 21 22  2  0
 22 23  1  0
 23 24  2  0
 24 25  1  0
 25 26  1  0
 26 27  2  0
 26 28  1  0
 28 29  1  0
 28 30  1  0
 25 31  2  0
 19 32  2  0
  8  6  1  0
 11  9  1  0
 32 12  1  0
 31 21  1  0
M  CHG  2  16   1  18  -1
M  END
>  <Synonyms>  (88) 
OBI-3424

>  <Research Codes>  (88) 
OBI-3424

>  <Phase>  (88) 
1

>  <Applicants>  (88) 
nan

>  <USAN Stem>  (88) 
nan

>  <USAN Year>  (88) 
nan

>  <USAN Stem Definition>  (88) 
nan

>  <USAN Stem Substem>  (88) 
nan

>  <First Approval>  (88) 
nan

>  <ATC Codes>  (88) 
nan

>  <Level 4 ATC Codes>  (88) 
nan

>  <Level 3 ATC Codes>  (88) 
nan

>  <Level 2 ATC Codes>  (88) 
nan

>  <Level 1 ATC Codes>  (88) 
nan

>  <Indication Class>  (88) 
nan

>  <Patent>  (88) 
nan

>  <Drug Type>  (88) 
1:Synthetic Small Molecule

>  <Passes Rule of Five>  (88) 
True

>  <First In Class>  (88) 
False

>  <Chirality>  (88) 
Single Stereoisomer

>  <Prodrug>  (88) 
False

>  <Oral>  (88) 
False

>  <Parenteral>  (88) 
False

>  <Topical>  (88) 
False

>  <Black Box>  (88) 
False

>  <Availability Type>  (88) 
Unknown

>  <Withdrawn Year>  (88) 
nan

>  <Withdrawn Reason>  (88) 
nan

>  <Withdrawn Country>  (88) 
nan

>  <Withdrawn Class>  (88) 
nan

>  <SMILES>  (88) 
C[C@@H](OP(=O)(N1CC1)N1CC1)c1ccc([N+](=O)[O-])c(Oc2cccc(C(=O)N(C)C)c2)c1

>  <InChi Key>  (88) 
NWGZZGNICQFUHV-OAHLLOKOSA-N

$$$$
CHEMBL4297491
     RDKit          2D

 53 59  0  0  0  0  0  0  0  0999 V2000
    5.2500   -1.2990    0.0000 C   0  0  0  0  0  0  0  0  0  0  0  0
    3.7500   -1.2990    0.0000 C   0  0  0  0  0  0  0  0  0  0  0  0
    3.0000    0.0000    0.0000 C   0  0  0  0  0  0  0  0  0  0  0  0
    1.5000    0.0000    0.0000 N   0  0  0  0  0  0  0  0  0  0  0  0
    0.7500   -1.2990    0.0000 C   0  0  0  0  0  0  0  0  0  0  0  0
   -0.7500   -1.2990    0.0000 C   0  0  0  0  0  0  0  0  0  0  0  0
   -1.5000   -2.5981    0.0000 O   0  0  0  0  0  0  0  0  0  0  0  0
   -1.5000    0.0000    0.0000 N   0  0  0  0  0  0  0  0  0  0  0  0
   -3.0000    0.0000    0.0000 C   0  0  0  0  0  0  0  0  0  0  0  0
   -3.7500   -1.2990    0.0000 C   0  0  0  0  0  0  0  0  0  0  0  0
   -5.2500   -1.2990    0.0000 C   0  0  0  0  0  0  0  0  0  0  0  0
   -6.0000    0.0000    0.0000 C   0  0  0  0  0  0  0  0  0  0  0  0
   -7.5000    0.0000    0.0000 C   0  0  0  0  0  0  0  0  0  0  0  0
   -8.2500   -1.2990    0.0000 C   0  0  0  0  0  0  0  0  0  0  0  0
   -9.7500   -1.2990    0.0000 O   0  0  0  0  0  0  0  0  0  0  0  0
   -7.5000   -2.5981    0.0000 C   0  0  0  0  0  0  0  0  0  0  0  0
   -6.0000   -2.5981    0.0000 C   0  0  0  0  0  0  0  0  0  0  0  0
   -5.2500   -3.8971    0.0000 F   0  0  0  0  0  0  0  0  0  0  0  0
   -3.7500    1.2990    0.0000 C   0  0  0  0  0  0  0  0  0  0  0  0
   -5.2500    1.2990    0.0000 O   0  0  0  0  0  0  0  0  0  0  0  0
   -3.0000    2.5981    0.0000 N   0  0  0  0  0  0  0  0  0  0  0  0
   -3.7500    3.8971    0.0000 C   0  0  0  0  0  0  0  0  0  0  0  0
   -3.0000    5.1962    0.0000 C   0  0  0  0  0  0  0  0  0  0  0  0
   -1.5000    5.1962    0.0000 C   0  0  0  0  0  0  0  0  0  0  0  0
   -0.7500    6.4952    0.0000 C   0  0  0  0  0  0  0  0  0  0  0  0
   -1.5000    7.7942    0.0000 C   0  0  0  0  0  0  0  0  0  0  0  0
   -3.0000    7.7942    0.0000 C   0  0  0  0  0  0  0  0  0  0  0  0
   -3.7500    9.0933    0.0000 N   0  0  0  0  0  0  0  0  0  0  0  0
   -3.3618   10.5422    0.0000 C   0  0  0  0  0  0  0  0  0  0  0  0
   -4.8107   10.9304    0.0000 C   0  0  0  0  0  0  0  0  0  0  0  0
   -5.5607   12.2294    0.0000 N   0  0  0  0  0  0  0  0  0  0  0  0
   -4.8107   13.5285    0.0000 C   0  0  0  0  0  0  0  0  0  0  0  0
   -5.5607   14.8275    0.0000 C   0  0  0  0  0  0  0  0  0  0  0  0
   -7.0607   14.8275    0.0000 N   0  0  0  0  0  0  0  0  0  0  0  0
   -7.8107   16.1265    0.0000 C   0  0  0  0  0  0  0  0  0  0  0  0
   -7.0607   17.4256    0.0000 C   0  0  0  0  0  0  0  0  0  0  0  0
   -7.8107   13.5285    0.0000 C   0  0  0  0  0  0  0  0  0  0  0  0
   -7.0607   12.2294    0.0000 C   0  0  0  0  0  0  0  0  0  0  0  0
   -5.1989    9.4815    0.0000 C   0  0  0  0  0  0  0  0  0  0  0  0
   -3.7500    6.4952    0.0000 N   0  0  0  0  0  0  0  0  0  0  0  0
   -1.5000    2.5981    0.0000 C   0  0  0  0  0  0  0  0  0  0  0  0
   -0.7500    1.2990    0.0000 C   0  0  0  0  0  0  0  0  0  0  0  0
    0.7500    1.2990    0.0000 N   0  0  0  0  0  0  0  0  0  0  0  0
    1.5000    2.5981    0.0000 C   0  0  0  0  0  0  0  0  0  0  0  0
    0.7500    3.8971    0.0000 O   0  0  0  0  0  0  0  0  0  0  0  0
    3.0000    2.5981    0.0000 N   0  0  0  0  0  0  0  0  0  0  0  0
    3.7500    3.8971    0.0000 C   0  0  0  0  0  0  0  0  0  0  0  0
    5.2500    3.8971    0.0000 C   0  0  0  0  0  0  0  0  0  0  0  0
    6.0000    2.5981    0.0000 C   0  0  0  0  0  0  0  0  0  0  0  0
    7.5000    2.5981    0.0000 C   0  0  0  0  0  0  0  0  0  0  0  0
    8.2500    3.8971    0.0000 C   0  0  0  0  0  0  0  0  0  0  0  0
    7.5000    5.1962    0.0000 C   0  0  0  0  0  0  0  0  0  0  0  0
    6.0000    5.1962    0.0000 C   0  0  0  0  0  0  0  0  0  0  0  0
  1  2  2  0
  2  3  1  0
  3  4  1  0
  4  5  1  0
  5  6  1  0
  6  7  2  0
  6  8  1  0
  8  9  1  0
  9 10  1  0
 10 11  1  0
 11 12  2  0
 12 13  1  0
 13 14  2  0
 14 15  1  0
 14 16  1  0
 16 17  2  0
 17 18  1  0
  9 19  1  0
 19 20  2  0
 19 21  1  0
 21 22  1  0
 22 23  1  0
 23 24  2  0
 24 25  1  0
 25 26  2  0
 26 27  1  0
 27 28  1  0
 28 29  1  0
 29 30  1  0
 30 31  1  0
 31 32  1  0
 32 33  1  0
 33 34  1  0
 34 35  1  0
 35 36  1  0
 34 37  1  0
 37 38  1  0
 30 39  1  0
 27 40  2  0
 21 41  1  0
 42 41  1  6
 42 43  1  0
 43 44  1  0
 44 45  2  0
 44 46  1  0
 46 47  1  0
 47 48  1  0
 48 49  2  0
 49 50  1  0
 50 51  2  0
 51 52  1  0
 52 53  2  0
 43  4  1  0
 53 48  1  0
 42  8  1  0
 17 11  1  0
 40 23  1  0
 39 28  1  0
 38 31  1  0
M  END
>  <Synonyms>  (89) 
E-7386|E7386

>  <Research Codes>  (89) 
E-7386|E7386

>  <Phase>  (89) 
1

>  <Applicants>  (89) 
nan

>  <USAN Stem>  (89) 
nan

>  <USAN Year>  (89) 
nan

>  <USAN Stem Definition>  (89) 
nan

>  <USAN Stem Substem>  (89) 
nan

>  <First Approval>  (89) 
nan

>  <ATC Codes>  (89) 
nan

>  <Level 4 ATC Codes>  (89) 
nan

>  <Level 3 ATC Codes>  (89) 
nan

>  <Level 2 ATC Codes>  (89) 
nan

>  <Level 1 ATC Codes>  (89) 
nan

>  <Indication Class>  (89) 
nan

>  <Patent>  (89) 
nan

>  <Drug Type>  (89) 
1:Synthetic Small Molecule

>  <Passes Rule of Five>  (89) 
False

>  <First In Class>  (89) 
False

>  <Chirality>  (89) 
Single Stereoisomer

>  <Prodrug>  (89) 
False

>  <Oral>  (89) 
False

>  <Parenteral>  (89) 
False

>  <Topical>  (89) 
False

>  <Black Box>  (89) 
False

>  <Availability Type>  (89) 
Unknown

>  <Withdrawn Year>  (89) 
nan

>  <Withdrawn Reason>  (89) 
nan

>  <Withdrawn Country>  (89) 
nan

>  <Withdrawn Class>  (89) 
nan

>  <SMILES>  (89) 
C=CCN1CC(=O)N2[C@@H](Cc3ccc(O)cc3F)C(=O)N(Cc3cccc(N4CC(N5CCN(CC)CC5)C4)n3)C[C@@H]2N1C(=O)NCc1ccccc1

>  <InChi Key>  (89) 
ZGNKNLOBYFTGRG-XTNWEWJCSA-N

$$$$
CHEMBL4297675
     RDKit          2D

 36 37  0  0  0  0  0  0  0  0999 V2000
    9.7500   -3.8971    0.0000 C   0  0  0  0  0  0  0  0  0  0  0  0
    8.2500   -3.8971    0.0000 C   0  0  0  0  0  0  0  0  0  0  0  0
    7.5000   -5.1962    0.0000 O   0  0  0  0  0  0  0  0  0  0  0  0
    7.5000   -2.5981    0.0000 O   0  0  0  0  0  0  0  0  0  0  0  0
    6.0000   -2.5981    0.0000 C   0  0  0  0  0  0  0  0  0  0  0  0
    5.2500   -1.2990    0.0000 C   0  0  0  0  0  0  0  0  0  0  0  0
    3.7500   -1.2990    0.0000 C   0  0  0  0  0  0  0  0  0  0  0  0
    3.0000    0.0000    0.0000 O   0  0  0  0  0  0  0  0  0  0  0  0
    1.5000    0.0000    0.0000 C   0  0  0  0  0  0  0  0  0  0  0  0
    0.7500   -1.2990    0.0000 C   0  0  0  0  0  0  0  0  0  0  0  0
   -0.7500   -1.2990    0.0000 C   0  0  0  0  0  0  0  0  0  0  0  0
   -1.5000    0.0000    0.0000 C   0  0  0  0  0  0  0  0  0  0  0  0
   -3.0000    0.0000    0.0000 C   0  0  0  0  0  0  0  0  0  0  0  0
   -3.0000   -1.5000    0.0000 C   0  0  0  0  0  0  0  0  0  0  0  0
   -3.0000    1.5000    0.0000 C   0  0  0  0  0  0  0  0  0  0  0  0
   -4.5000    0.0000    0.0000 C   0  0  0  0  0  0  0  0  0  0  0  0
   -5.2500    1.2990    0.0000 C   0  0  0  0  0  0  0  0  0  0  0  0
   -6.7500    1.2990    0.0000 C   0  0  0  0  0  0  0  0  0  0  0  0
   -7.5000    0.0000    0.0000 C   0  0  0  0  0  0  0  0  0  0  0  0
   -9.0000    0.0000    0.0000 O   0  0  0  0  0  0  0  0  0  0  0  0
   -9.7500    1.2990    0.0000 C   0  0  0  0  0  0  0  0  0  0  0  0
  -11.2500    1.2990    0.0000 C   0  0  0  0  0  0  0  0  0  0  0  0
  -12.0000    2.5981    0.0000 C   0  0  0  0  0  0  0  0  0  0  0  0
  -13.5000    2.5981    0.0000 Cl  0  0  0  0  0  0  0  0  0  0  0  0
  -12.0000    0.0000    0.0000 O   0  0  0  0  0  0  0  0  0  0  0  0
  -13.5000    0.0000    0.0000 C   0  0  0  0  0  0  0  0  0  0  0  0
  -14.2500   -1.2990    0.0000 C   0  0  0  0  0  0  0  0  0  0  0  0
  -14.2500    1.2990    0.0000 O   0  0  0  0  0  0  0  0  0  0  0  0
   -6.7500   -1.2990    0.0000 C   0  0  0  0  0  0  0  0  0  0  0  0
   -5.2500   -1.2990    0.0000 C   0  0  0  0  0  0  0  0  0  0  0  0
   -0.7500    1.2990    0.0000 C   0  0  0  0  0  0  0  0  0  0  0  0
    0.7500    1.2990    0.0000 C   0  0  0  0  0  0  0  0  0  0  0  0
    6.0000    0.0000    0.0000 O   0  0  0  0  0  0  0  0  0  0  0  0
    7.5000    0.0000    0.0000 C   0  0  0  0  0  0  0  0  0  0  0  0
    8.2500    1.2990    0.0000 C   0  0  0  0  0  0  0  0  0  0  0  0
    8.2500   -1.2990    0.0000 O   0  0  0  0  0  0  0  0  0  0  0  0
  1  2  1  0
  2  3  2  0
  2  4  1  0
  4  5  1  0
  6  5  1  6
  6  7  1  0
  7  8  1  0
  8  9  1  0
  9 10  2  0
 10 11  1  0
 11 12  2  0
 12 13  1  0
 13 14  1  0
 13 15  1  0
 13 16  1  0
 16 17  2  0
 17 18  1  0
 18 19  2  0
 19 20  1  0
 20 21  1  0
 22 21  1  6
 22 23  1  0
 23 24  1  0
 22 25  1  0
 25 26  1  0
 26 27  1  0
 26 28  2  0
 19 29  1  0
 29 30  2  0
 12 31  1  0
 31 32  2  0
  6 33  1  0
 33 34  1  0
 34 35  1  0
 34 36  2  0
 32  9  1  0
 30 16  1  0
M  END
>  <Synonyms>  (90) 
EPI-506|RALANITEN ACETATE

>  <Research Codes>  (90) 
nan

>  <Phase>  (90) 
1

>  <Applicants>  (90) 
nan

>  <USAN Stem>  (90) 
'-aniten'

>  <USAN Year>  (90) 
nan

>  <USAN Stem Definition>  (90) 
androgen receptor inhibitor, N-terminal domain inhibitor

>  <USAN Stem Substem>  (90) 
'-aniten(-aniten)'

>  <First Approval>  (90) 
nan

>  <ATC Codes>  (90) 
nan

>  <Level 4 ATC Codes>  (90) 
nan

>  <Level 3 ATC Codes>  (90) 
nan

>  <Level 2 ATC Codes>  (90) 
nan

>  <Level 1 ATC Codes>  (90) 
nan

>  <Indication Class>  (90) 
nan

>  <Patent>  (90) 
nan

>  <Drug Type>  (90) 
1:Synthetic Small Molecule

>  <Passes Rule of Five>  (90) 
False

>  <First In Class>  (90) 
False

>  <Chirality>  (90) 
Single Stereoisomer

>  <Prodrug>  (90) 
False

>  <Oral>  (90) 
False

>  <Parenteral>  (90) 
False

>  <Topical>  (90) 
False

>  <Black Box>  (90) 
False

>  <Availability Type>  (90) 
Unknown

>  <Withdrawn Year>  (90) 
nan

>  <Withdrawn Reason>  (90) 
nan

>  <Withdrawn Country>  (90) 
nan

>  <Withdrawn Class>  (90) 
nan

>  <SMILES>  (90) 
CC(=O)OC[C@H](COc1ccc(C(C)(C)c2ccc(OC[C@@H](CCl)OC(C)=O)cc2)cc1)OC(C)=O

>  <InChi Key>  (90) 
HGHVYYKTOXUQNT-CLJLJLNGSA-N

$$$$
CHEMBL4297519
     RDKit          2D

 60 64  0  0  0  0  0  0  0  0999 V2000
   -0.7339   -4.5199    0.0000 C   0  0  0  0  0  0  0  0  0  0  0  0
   -0.5104   -3.0367    0.0000 C   0  0  0  0  0  0  0  0  0  0  0  0
   -1.6831   -2.1015    0.0000 C   0  0  0  0  0  0  0  0  0  0  0  0
   -2.8559   -3.0367    0.0000 O   0  0  0  0  0  0  0  0  0  0  0  0
   -4.3183   -3.3705    0.0000 C   0  0  0  0  0  0  0  0  0  0  0  0
   -4.3183   -4.8705    0.0000 O   0  0  0  0  0  0  0  0  0  0  0  0
   -5.7806   -3.0367    0.0000 C   0  0  0  0  0  0  0  0  0  0  0  0
   -6.4315   -4.3881    0.0000 C   0  0  0  0  0  0  0  0  0  0  0  0
   -6.9534   -2.1015    0.0000 C   0  0  0  0  0  0  0  0  0  0  0  0
   -8.1261   -3.0367    0.0000 O   0  0  0  0  0  0  0  0  0  0  0  0
   -7.6042   -0.7500    0.0000 C   0  0  0  0  0  0  0  0  0  0  0  0
   -9.0666   -1.0838    0.0000 C   0  0  0  0  0  0  0  0  0  0  0  0
   -7.6042    0.7500    0.0000 C   0  0  0  0  0  0  0  0  0  0  0  0
   -9.0666    1.0838    0.0000 O   0  0  0  0  0  0  0  0  0  0  0  0
   -9.5087    2.5171    0.0000 C   0  0  0  0  0  0  0  0  0  0  0  0
   -8.4885    3.6167    0.0000 O   0  0  0  0  0  0  0  0  0  0  0  0
   -8.9306    5.0501    0.0000 C   0  0  0  0  0  0  0  0  0  0  0  0
   -7.9104    6.1497    0.0000 C   0  0  0  0  0  0  0  0  0  0  0  0
  -10.3930    5.3839    0.0000 C   0  0  0  0  0  0  0  0  0  0  0  0
  -11.4133    4.2843    0.0000 C   0  0  0  0  0  0  0  0  0  0  0  0
  -12.8757    4.6181    0.0000 N   0  0  0  0  0  0  0  0  0  0  0  0
  -13.3178    6.0514    0.0000 C   0  0  0  0  0  0  0  0  0  0  0  0
  -13.8959    3.5185    0.0000 C   0  0  0  0  0  0  0  0  0  0  0  0
  -10.9711    2.8509    0.0000 C   0  0  0  0  0  0  0  0  0  0  0  0
  -11.9914    1.7513    0.0000 O   0  0  0  0  0  0  0  0  0  0  0  0
   -6.9534    2.1015    0.0000 C   0  0  0  0  0  0  0  0  0  0  0  0
   -8.4492    2.2135    0.0000 C   0  0  0  0  0  0  0  0  0  0  0  0
   -7.3955    3.5348    0.0000 O   0  0  0  0  0  0  0  0  0  0  0  0
   -6.3753    4.6344    0.0000 C   0  0  0  0  0  0  0  0  0  0  0  0
   -5.7806    3.0367    0.0000 C   0  0  0  0  0  0  0  0  0  0  0  0
   -4.3183    3.3705    0.0000 C   0  0  0  0  0  0  0  0  0  0  0  0
   -4.3183    4.8705    0.0000 C   0  0  0  0  0  0  0  0  0  0  0  0
   -2.8559    3.0367    0.0000 C   0  0  0  0  0  0  0  0  0  0  0  0
   -2.2050    4.3881    0.0000 O   0  0  0  0  0  0  0  0  0  0  0  0
   -1.6831    2.1015    0.0000 C   0  0  0  0  0  0  0  0  0  0  0  0
   -0.5104    3.0367    0.0000 C   0  0  0  0  0  0  0  0  0  0  0  0
   -1.0323    0.7500    0.0000 C   0  0  0  0  0  0  0  0  0  0  0  0
    0.3943    1.2135    0.0000 C   0  0  0  0  0  0  0  0  0  0  0  0
    0.8578    2.6401    0.0000 C   0  0  0  0  0  0  0  0  0  0  0  0
    2.3250    2.9520    0.0000 N   0  0  0  0  0  0  0  0  0  0  0  0
   -0.1459    3.7548    0.0000 N   0  0  0  0  0  0  0  0  0  0  0  0
    0.3177    5.1814    0.0000 O   0  0  0  0  0  0  0  0  0  0  0  0
   -0.6860    6.2961    0.0000 C   0  0  0  0  0  0  0  0  0  0  0  0
   -2.1533    5.9843    0.0000 C   0  0  0  0  0  0  0  0  0  0  0  0
   -0.2225    7.7227    0.0000 C   0  0  0  0  0  0  0  0  0  0  0  0
    1.2041    8.1862    0.0000 N   0  0  0  0  0  0  0  0  0  0  0  0
    1.2041    9.6862    0.0000 N   0  0  0  0  0  0  0  0  0  0  0  0
   -0.2225   10.1498    0.0000 C   0  0  0  0  0  0  0  0  0  0  0  0
   -0.6860   11.5764    0.0000 C   0  0  0  0  0  0  0  0  0  0  0  0
   -2.1533   11.8882    0.0000 C   0  0  0  0  0  0  0  0  0  0  0  0
   -2.6168   13.3148    0.0000 C   0  0  0  0  0  0  0  0  0  0  0  0
   -1.6131   14.4295    0.0000 C   0  0  0  0  0  0  0  0  0  0  0  0
   -0.1459   14.1177    0.0000 C   0  0  0  0  0  0  0  0  0  0  0  0
    0.3177   12.6911    0.0000 N   0  0  0  0  0  0  0  0  0  0  0  0
   -1.1042    8.9362    0.0000 S   0  0  0  0  0  0  0  0  0  0  0  0
    1.2760    0.0000    0.0000 C   0  0  0  0  0  0  0  0  0  0  0  0
    2.7760    0.0000    0.0000 O   0  0  0  0  0  0  0  0  0  0  0  0
    0.3943   -1.2135    0.0000 O   0  0  0  0  0  0  0  0  0  0  0  0
   -1.0323   -0.7500    0.0000 C   0  0  0  0  0  0  0  0  0  0  0  0
   -0.4427   -2.1293    0.0000 C   0  0  0  0  0  0  0  0  0  0  0  0
  1  2  1  0
  3  2  1  1
  3  4  1  0
  4  5  1  0
  5  6  2  0
  5  7  1  0
  7  8  1  0
  7  9  1  0
  9 10  2  0
  9 11  1  0
 11 12  1  0
 11 13  1  0
 13 14  1  1
 15 14  1  1
 15 16  1  0
 16 17  1  0
 17 18  1  1
 17 19  1  0
 19 20  1  0
 20 21  1  1
 21 22  1  0
 21 23  1  0
 20 24  1  0
 24 25  1  6
 13 26  1  0
 26 27  1  1
 26 28  1  0
 28 29  1  0
 26 30  1  0
 30 31  1  0
 31 32  1  0
 31 33  1  0
 33 34  2  0
 33 35  1  0
 35 36  1  6
 37 35  1  1
 37 38  1  0
 38 39  1  6
 39 40  1  0
 39 41  2  3
 41 42  1  0
 42 43  1  0
 43 44  1  1
 43 45  1  0
 45 46  2  0
 46 47  1  0
 47 48  2  0
 48 49  1  0
 49 50  2  0
 50 51  1  0
 51 52  2  0
 52 53  1  0
 53 54  2  0
 48 55  1  0
 38 56  1  0
 56 57  2  0
 56 58  1  0
 58 59  1  0
 59 60  1  1
 59  3  1  0
 24 15  1  0
 59 37  1  0
 55 45  1  0
 54 49  1  0
M  END
>  <Synonyms>  (91) 
NAFITHROMYCIN

>  <Research Codes>  (91) 
nan

>  <Phase>  (91) 
1

>  <Applicants>  (91) 
nan

>  <USAN Stem>  (91) 
'-mycin'

>  <USAN Year>  (91) 
nan

>  <USAN Stem Definition>  (91) 
antibiotics (Streptomyces strains)

>  <USAN Stem Substem>  (91) 
'-mycin(-mycin)'

>  <First Approval>  (91) 
nan

>  <ATC Codes>  (91) 
nan

>  <Level 4 ATC Codes>  (91) 
nan

>  <Level 3 ATC Codes>  (91) 
nan

>  <Level 2 ATC Codes>  (91) 
nan

>  <Level 1 ATC Codes>  (91) 
nan

>  <Indication Class>  (91) 
nan

>  <Patent>  (91) 
nan

>  <Drug Type>  (91) 
7:Natural Product-derived

>  <Passes Rule of Five>  (91) 
False

>  <First In Class>  (91) 
False

>  <Chirality>  (91) 
Single Stereoisomer

>  <Prodrug>  (91) 
False

>  <Oral>  (91) 
False

>  <Parenteral>  (91) 
False

>  <Topical>  (91) 
False

>  <Black Box>  (91) 
False

>  <Availability Type>  (91) 
Unknown

>  <Withdrawn Year>  (91) 
nan

>  <Withdrawn Reason>  (91) 
nan

>  <Withdrawn Country>  (91) 
nan

>  <Withdrawn Class>  (91) 
nan

>  <SMILES>  (91) 
CC[C@H]1OC(=O)[C@H](C)C(=O)[C@H](C)[C@@H](O[C@@H]2O[C@H](C)C[C@H](N(C)C)[C@H]2O)[C@](C)(OC)C[C@@H](C)C(=O)[C@H](C)[C@H]2[C@H](/C(N)=N/O[C@@H](C)c3nnc(-c4ccccn4)s3)C(=O)O[C@@]21C

>  <InChi Key>  (91) 
RLFCSBSRGRJFRO-XLHJNQGGSA-N

$$$$
CHEMBL4297303
     RDKit          2D

 59 66  0  0  0  0  0  0  0  0999 V2000
    1.9830   15.2008    0.0000 C   0  0  0  0  0  0  0  0  0  0  0  0
    2.0353   13.7018    0.0000 C   0  0  0  0  0  0  0  0  0  0  0  0
    3.3597   12.9976    0.0000 C   0  0  0  0  0  0  0  0  0  0  0  0
    4.8588   13.0499    0.0000 C   0  0  0  0  0  0  0  0  0  0  0  0
    4.1546   11.7255    0.0000 C   0  0  0  0  0  0  0  0  0  0  0  0
    3.0399   10.7218    0.0000 N   0  0  0  0  0  0  0  0  0  0  0  0
    1.6133   11.1853    0.0000 C   0  0  0  0  0  0  0  0  0  0  0  0
    1.3014   12.6525    0.0000 O   0  0  0  0  0  0  0  0  0  0  0  0
    0.4986   10.1816    0.0000 C   0  0  0  0  0  0  0  0  0  0  0  0
   -0.9686   10.4935    0.0000 C   0  0  0  0  0  0  0  0  0  0  0  0
   -2.2345    9.3041    0.0000 C   0  0  0  0  0  0  0  0  0  0  0  0
   -0.7354    9.2517    0.0000 C   0  0  0  0  0  0  0  0  0  0  0  0
    0.6554    8.6898    0.0000 N   0  0  0  0  0  0  0  0  0  0  0  0
    1.7701    7.6861    0.0000 C   0  0  0  0  0  0  0  0  0  0  0  0
    2.9521    8.6096    0.0000 O   0  0  0  0  0  0  0  0  0  0  0  0
    2.4743    6.3617    0.0000 C   0  0  0  0  0  0  0  0  0  0  0  0
    3.9009    6.8252    0.0000 C   0  0  0  0  0  0  0  0  0  0  0  0
    4.3644    8.2518    0.0000 C   0  0  0  0  0  0  0  0  0  0  0  0
    5.8644    8.2518    0.0000 C   0  0  0  0  0  0  0  0  0  0  0  0
    6.3279    6.8252    0.0000 C   0  0  0  0  0  0  0  0  0  0  0  0
    5.1144    5.9436    0.0000 C   0  0  0  0  0  0  0  0  0  0  0  0
    2.6831    4.8763    0.0000 N   0  0  0  0  0  0  0  0  0  0  0  0
    2.3712    3.4091    0.0000 C   0  0  0  0  0  0  0  0  0  0  0  0
    3.7620    2.8472    0.0000 O   0  0  0  0  0  0  0  0  0  0  0  0
    1.5763    2.1370    0.0000 O   0  0  0  0  0  0  0  0  0  0  0  0
    0.3943    1.2135    0.0000 C   0  0  0  0  0  0  0  0  0  0  0  0
    1.2760    0.0000    0.0000 C   0  0  0  0  0  0  0  0  0  0  0  0
    0.3943   -1.2135    0.0000 C   0  0  0  0  0  0  0  0  0  0  0  0
   -1.0323   -0.7500    0.0000 C   0  0  0  0  0  0  0  0  0  0  0  0
   -1.0323    0.7500    0.0000 C   0  0  0  0  0  0  0  0  0  0  0  0
   -2.5314    0.8023    0.0000 C   0  0  0  0  0  0  0  0  0  0  0  0
   -3.9221    1.3643    0.0000 C   0  0  0  0  0  0  0  0  0  0  0  0
   -5.0369    2.3680    0.0000 C   0  0  0  0  0  0  0  0  0  0  0  0
   -5.7411    3.6924    0.0000 C   0  0  0  0  0  0  0  0  0  0  0  0
   -5.9498    5.1778    0.0000 C   0  0  0  0  0  0  0  0  0  0  0  0
   -5.6380    6.6450    0.0000 N   0  0  0  0  0  0  0  0  0  0  0  0
   -4.8431    7.9171    0.0000 C   0  0  0  0  0  0  0  0  0  0  0  0
   -5.5473    9.2415    0.0000 N   0  0  0  0  0  0  0  0  0  0  0  0
   -7.0464    9.2938    0.0000 C   0  0  0  0  0  0  0  0  0  0  0  0
   -7.7506   10.6183    0.0000 C   0  0  0  0  0  0  0  0  0  0  0  0
   -9.2497   10.6706    0.0000 C   0  0  0  0  0  0  0  0  0  0  0  0
   -9.9539   11.9950    0.0000 O   0  0  0  0  0  0  0  0  0  0  0  0
   -9.1590   13.2671    0.0000 C   0  0  0  0  0  0  0  0  0  0  0  0
  -10.0446    9.3985    0.0000 C   0  0  0  0  0  0  0  0  0  0  0  0
   -9.3403    8.0741    0.0000 C   0  0  0  0  0  0  0  0  0  0  0  0
   -7.8413    8.0218    0.0000 C   0  0  0  0  0  0  0  0  0  0  0  0
   -7.1371    6.6973    0.0000 C   0  0  0  0  0  0  0  0  0  0  0  0
   -7.9319    5.4253    0.0000 O   0  0  0  0  0  0  0  0  0  0  0  0
   -3.6611    8.8406    0.0000 O   0  0  0  0  0  0  0  0  0  0  0  0
    5.3366   10.8020    0.0000 C   0  0  0  0  0  0  0  0  0  0  0  0
    5.1279    9.3166    0.0000 O   0  0  0  0  0  0  0  0  0  0  0  0
    6.7274   11.3639    0.0000 N   0  0  0  0  0  0  0  0  0  0  0  0
    7.9094   10.4404    0.0000 S   0  0  0  0  0  0  0  0  0  0  0  0
    6.9859    9.2584    0.0000 O   0  0  0  0  0  0  0  0  0  0  0  0
    8.8329   11.6224    0.0000 O   0  0  0  0  0  0  0  0  0  0  0  0
    9.0914    9.5169    0.0000 C   0  0  0  0  0  0  0  0  0  0  0  0
    8.3872    8.1925    0.0000 C   0  0  0  0  0  0  0  0  0  0  0  0
   10.5180    9.0534    0.0000 C   0  0  0  0  0  0  0  0  0  0  0  0
   10.2061   10.5206    0.0000 C   0  0  0  0  0  0  0  0  0  0  0  0
  1  2  2  0
  3  2  1  6
  3  4  1  0
  4  5  1  0
  5  6  1  1
  6  7  1  0
  7  8  2  0
  7  9  1  0
  9 10  1  0
 11 10  1  6
 11 12  1  0
 12 13  1  0
 13 14  1  0
 14 15  2  0
 14 16  1  0
 16 17  1  0
 17 18  1  0
 18 19  1  0
 19 20  1  0
 20 21  1  0
 16 22  1  0
 22 23  1  0
 23 24  2  0
 23 25  1  0
 25 26  1  0
 26 27  1  6
 27 28  1  0
 28 29  1  0
 30 29  1  1
 30 31  1  0
 31 32  1  0
 32 33  1  0
 33 34  1  0
 34 35  1  0
 35 36  1  0
 36 37  1  0
 37 38  2  0
 38 39  1  0
 39 40  2  0
 40 41  1  0
 41 42  1  0
 42 43  1  0
 41 44  2  0
 44 45  1  0
 45 46  2  0
 46 47  1  0
 47 48  2  0
 37 49  1  0
  5 50  1  0
 50 51  2  0
 50 52  1  0
 52 53  1  0
 53 54  2  0
 53 55  2  0
 53 56  1  0
 56 57  1  0
 56 58  1  0
 58 59  1  0
  5  3  1  0
 13  9  1  0
 21 17  1  0
 30 26  1  0
 47 36  1  0
 59 56  1  0
 49 11  1  0
 46 39  1  0
M  END
>  <Synonyms>  (92) 
MK-2748|MK2748

>  <Research Codes>  (92) 
MK2748

>  <Phase>  (92) 
1

>  <Applicants>  (92) 
nan

>  <USAN Stem>  (92) 
nan

>  <USAN Year>  (92) 
nan

>  <USAN Stem Definition>  (92) 
nan

>  <USAN Stem Substem>  (92) 
nan

>  <First Approval>  (92) 
nan

>  <ATC Codes>  (92) 
nan

>  <Level 4 ATC Codes>  (92) 
nan

>  <Level 3 ATC Codes>  (92) 
nan

>  <Level 2 ATC Codes>  (92) 
nan

>  <Level 1 ATC Codes>  (92) 
nan

>  <Indication Class>  (92) 
nan

>  <Patent>  (92) 
nan

>  <Drug Type>  (92) 
7:Natural Product-derived

>  <Passes Rule of Five>  (92) 
False

>  <First In Class>  (92) 
False

>  <Chirality>  (92) 
Single Stereoisomer

>  <Prodrug>  (92) 
False

>  <Oral>  (92) 
False

>  <Parenteral>  (92) 
False

>  <Topical>  (92) 
False

>  <Black Box>  (92) 
False

>  <Availability Type>  (92) 
Unknown

>  <Withdrawn Year>  (92) 
nan

>  <Withdrawn Reason>  (92) 
nan

>  <Withdrawn Country>  (92) 
nan

>  <Withdrawn Class>  (92) 
nan

>  <SMILES>  (92) 
C=C[C@@H]1C[C@]1(NC(=O)[C@@H]1C[C@@H]2CN1C(=O)[C@H](C1CCCC1)NC(=O)O[C@@H]1CCC[C@H]1CCCCCn1c(nc3cc(OC)ccc3c1=O)O2)C(=O)NS(=O)(=O)C1(C)CC1

>  <InChi Key>  (92) 
HMYVZDWJFQOHCD-OTZJJEQQSA-N

$$$$
CHEMBL4297307
     RDKit          2D

 22 24  0  0  0  0  0  0  0  0999 V2000
   -2.9499    4.2246    0.0000 N   0  0  0  0  0  0  0  0  0  0  0  0
   -1.8351    3.2209    0.0000 C   0  0  0  0  0  0  0  0  0  0  0  0
   -0.4086    3.6844    0.0000 N   0  0  0  0  0  0  0  0  0  0  0  0
   -0.0967    5.1517    0.0000 O   0  0  0  0  0  0  0  0  0  0  0  0
    0.7062    2.6807    0.0000 C   0  0  0  0  0  0  0  0  0  0  0  0
    2.1328    3.1443    0.0000 C   0  0  0  0  0  0  0  0  0  0  0  0
    2.4446    4.6115    0.0000 O   0  0  0  0  0  0  0  0  0  0  0  0
    3.8712    5.0750    0.0000 C   0  0  0  0  0  0  0  0  0  0  0  0
    4.1831    6.5422    0.0000 N   0  0  0  0  0  0  0  0  0  0  0  0
    4.9859    4.0713    0.0000 O   0  0  0  0  0  0  0  0  0  0  0  0
    0.3943    1.2135    0.0000 C   0  0  0  0  0  0  0  0  0  0  0  0
    1.2760    0.0000    0.0000 N   0  0  0  0  0  0  0  0  0  0  0  0
    0.3943   -1.2135    0.0000 C   0  0  0  0  0  0  0  0  0  0  0  0
    0.8578   -2.6401    0.0000 N   0  0  0  0  0  0  0  0  0  0  0  0
   -1.0323   -0.7500    0.0000 N   0  0  0  0  0  0  0  0  0  0  0  0
   -1.0323    0.7500    0.0000 C   0  0  0  0  0  0  0  0  0  0  0  0
   -2.1470    1.7537    0.0000 N   0  0  0  0  0  0  0  0  0  0  0  0
   -1.5963    1.8049    0.0000 C   0  0  0  0  0  0  0  0  0  0  0  0
   -1.7290    1.0971    0.0000 C   0  0  0  0  0  0  0  0  0  0  0  0
   -1.0390    1.3030    0.0000 C   0  0  0  0  0  0  0  0  0  0  0  0
   -1.9543   -2.0875    0.0000 O   0  0  0  0  0  0  0  0  0  0  0  0
   -0.6005   -1.6994    0.0000 O   0  0  0  0  0  0  0  0  0  0  0  0
  1  2  2  0
  2  3  1  0
  3  4  1  0
  3  5  1  0
  5  6  1  1
  6  7  1  0
  7  8  1  0
  8  9  1  0
  8 10  2  0
  5 11  1  0
 11 12  1  6
 12 13  2  0
 13 14  1  0
 13 15  1  0
 16 15  1  1
 16 17  1  0
 17 18  1  0
 18 19  1  0
 19 20  1  0
 20 21  1  0
 20 22  1  0
 17  2  1  0
 16 11  1  0
 20 16  1  0
M  END
>  <Synonyms>  (93) 
NEOSAXITOXIN

>  <Research Codes>  (93) 
nan

>  <Phase>  (93) 
1

>  <Applicants>  (93) 
nan

>  <USAN Stem>  (93) 
'-oxin'

>  <USAN Year>  (93) 
nan

>  <USAN Stem Definition>  (93) 
fluoroquinolone derivatives, nonantibacterial indications (e.g., antineoplastic antibiotics)

>  <USAN Stem Substem>  (93) 
'-oxin(-oxin)'

>  <First Approval>  (93) 
nan

>  <ATC Codes>  (93) 
nan

>  <Level 4 ATC Codes>  (93) 
nan

>  <Level 3 ATC Codes>  (93) 
nan

>  <Level 2 ATC Codes>  (93) 
nan

>  <Level 1 ATC Codes>  (93) 
nan

>  <Indication Class>  (93) 
nan

>  <Patent>  (93) 
nan

>  <Drug Type>  (93) 
1:Synthetic Small Molecule

>  <Passes Rule of Five>  (93) 
False

>  <First In Class>  (93) 
False

>  <Chirality>  (93) 
Single Stereoisomer

>  <Prodrug>  (93) 
False

>  <Oral>  (93) 
False

>  <Parenteral>  (93) 
False

>  <Topical>  (93) 
False

>  <Black Box>  (93) 
False

>  <Availability Type>  (93) 
Unknown

>  <Withdrawn Year>  (93) 
nan

>  <Withdrawn Reason>  (93) 
nan

>  <Withdrawn Country>  (93) 
nan

>  <Withdrawn Class>  (93) 
nan

>  <SMILES>  (93) 
N=C1N(O)[C@@H](COC(N)=O)[C@@H]2N=C(N)N[C@]23N1CCC3(O)O

>  <InChi Key>  (93) 
PPEKGEBBBBNZKS-HGRQIUPRSA-N

$$$$
CHEMBL4297327
     RDKit          2D

 28 31  0  0  0  0  0  0  0  0999 V2000
  -12.8773  -11.5833    0.0000 C   0  0  0  0  0  0  0  0  0  0  0  0
  -11.9956  -10.3698    0.0000 O   0  0  0  0  0  0  0  0  0  0  0  0
  -10.5038  -10.5266    0.0000 C   0  0  0  0  0  0  0  0  0  0  0  0
   -9.6221   -9.3130    0.0000 C   0  0  0  0  0  0  0  0  0  0  0  0
   -8.1303   -9.4698    0.0000 C   0  0  0  0  0  0  0  0  0  0  0  0
   -7.2487   -8.2563    0.0000 N   0  0  0  0  0  0  0  0  0  0  0  0
   -7.8588   -6.8860    0.0000 C   0  0  0  0  0  0  0  0  0  0  0  0
   -6.9771   -5.6725    0.0000 C   0  0  0  0  0  0  0  0  0  0  0  0
   -5.4853   -5.8293    0.0000 C   0  0  0  0  0  0  0  0  0  0  0  0
   -4.6036   -4.6157    0.0000 C   0  0  0  0  0  0  0  0  0  0  0  0
   -5.0672   -3.1891    0.0000 N   0  0  0  0  0  0  0  0  0  0  0  0
   -3.8536   -2.3075    0.0000 N   0  0  0  0  0  0  0  0  0  0  0  0
   -2.6401   -3.1891    0.0000 C   0  0  0  0  0  0  0  0  0  0  0  0
   -1.2135   -2.7256    0.0000 C   0  0  0  0  0  0  0  0  0  0  0  0
   -0.0000   -3.6073    0.0000 N   0  0  0  0  0  0  0  0  0  0  0  0
    1.2135   -2.7256    0.0000 N   0  0  0  0  0  0  0  0  0  0  0  0
    2.6401   -3.1891    0.0000 C   0  0  0  0  0  0  0  0  0  0  0  0
    2.9520   -4.6564    0.0000 C   0  0  0  0  0  0  0  0  0  0  0  0
    3.7548   -2.1855    0.0000 C   0  0  0  0  0  0  0  0  0  0  0  0
    0.7500   -1.2990    0.0000 C   0  0  0  0  0  0  0  0  0  0  0  0
    1.5000    0.0000    0.0000 C   0  0  0  0  0  0  0  0  0  0  0  0
    0.7500    1.2990    0.0000 C   0  0  0  0  0  0  0  0  0  0  0  0
   -0.7500    1.2990    0.0000 C   0  0  0  0  0  0  0  0  0  0  0  0
   -1.5000    0.0000    0.0000 C   0  0  0  0  0  0  0  0  0  0  0  0
   -0.7500   -1.2990    0.0000 C   0  0  0  0  0  0  0  0  0  0  0  0
   -3.1036   -4.6157    0.0000 O   0  0  0  0  0  0  0  0  0  0  0  0
   -4.8752   -7.1996    0.0000 C   0  0  0  0  0  0  0  0  0  0  0  0
   -5.7569   -8.4131    0.0000 C   0  0  0  0  0  0  0  0  0  0  0  0
  1  2  1  0
  2  3  1  0
  3  4  1  0
  4  5  1  0
  5  6  1  0
  6  7  1  0
  7  8  1  0
  8  9  1  0
  9 10  1  0
 10 11  2  0
 11 12  1  0
 12 13  2  0
 13 14  1  0
 14 15  2  0
 15 16  1  0
 16 17  1  0
 17 18  1  0
 17 19  1  0
 16 20  1  0
 20 21  2  0
 21 22  1  0
 22 23  2  0
 23 24  1  0
 24 25  2  0
 13 26  1  0
  9 27  1  0
 27 28  1  0
 28  6  1  0
 26 10  1  0
 25 14  1  0
 25 20  1  0
M  END
>  <Synonyms>  (94) 
SUVN-D4010

>  <Research Codes>  (94) 
nan

>  <Phase>  (94) 
1

>  <Applicants>  (94) 
nan

>  <USAN Stem>  (94) 
nan

>  <USAN Year>  (94) 
nan

>  <USAN Stem Definition>  (94) 
nan

>  <USAN Stem Substem>  (94) 
nan

>  <First Approval>  (94) 
nan

>  <ATC Codes>  (94) 
nan

>  <Level 4 ATC Codes>  (94) 
nan

>  <Level 3 ATC Codes>  (94) 
nan

>  <Level 2 ATC Codes>  (94) 
nan

>  <Level 1 ATC Codes>  (94) 
nan

>  <Indication Class>  (94) 
nan

>  <Patent>  (94) 
nan

>  <Drug Type>  (94) 
1:Synthetic Small Molecule

>  <Passes Rule of Five>  (94) 
True

>  <First In Class>  (94) 
False

>  <Chirality>  (94) 
Achiral Molecule

>  <Prodrug>  (94) 
False

>  <Oral>  (94) 
False

>  <Parenteral>  (94) 
False

>  <Topical>  (94) 
False

>  <Black Box>  (94) 
False

>  <Availability Type>  (94) 
Unknown

>  <Withdrawn Year>  (94) 
nan

>  <Withdrawn Reason>  (94) 
nan

>  <Withdrawn Country>  (94) 
nan

>  <Withdrawn Class>  (94) 
nan

>  <SMILES>  (94) 
COCCCN1CCC(c2nnc(-c3nn(C(C)C)c4ccccc34)o2)CC1

>  <InChi Key>  (94) 
DWTFBJGTRBMHPG-UHFFFAOYSA-N

$$$$
CHEMBL4297353
     RDKit          2D

 45 49  0  0  0  0  0  0  0  0999 V2000
    6.7500    1.2990    0.0000 C   0  0  0  0  0  0  0  0  0  0  0  0
    5.2500    1.2990    0.0000 C   0  0  0  0  0  0  0  0  0  0  0  0
    4.5000    0.0000    0.0000 C   0  0  0  0  0  0  0  0  0  0  0  0
    3.0000    0.0000    0.0000 S   0  0  0  0  0  0  0  0  0  0  0  0
    3.0000    1.5000    0.0000 O   0  0  0  0  0  0  0  0  0  0  0  0
    3.0000   -1.5000    0.0000 O   0  0  0  0  0  0  0  0  0  0  0  0
    1.5000    0.0000    0.0000 N   0  0  0  0  0  0  0  0  0  0  0  0
    0.7500   -1.2990    0.0000 C   0  0  0  0  0  0  0  0  0  0  0  0
   -0.7500   -1.2990    0.0000 C   0  0  0  0  0  0  0  0  0  0  0  0
   -1.5000    0.0000    0.0000 N   0  0  0  0  0  0  0  0  0  0  0  0
   -3.0000    0.0000    0.0000 C   0  0  0  0  0  0  0  0  0  0  0  0
   -3.7500    1.2990    0.0000 C   0  0  0  0  0  0  0  0  0  0  0  0
   -3.0000    2.5981    0.0000 C   0  0  0  0  0  0  0  0  0  0  0  0
   -3.7500    3.8971    0.0000 C   0  0  0  0  0  0  0  0  0  0  0  0
   -5.2500    3.8971    0.0000 C   0  0  0  0  0  0  0  0  0  0  0  0
   -6.0000    5.1962    0.0000 N   0  0  0  0  0  0  0  0  0  0  0  0
   -5.2500    6.4952    0.0000 C   0  0  0  0  0  0  0  0  0  0  0  0
   -3.7500    6.4952    0.0000 O   0  0  0  0  0  0  0  0  0  0  0  0
   -6.0000    7.7942    0.0000 C   0  0  0  0  0  0  0  0  0  0  0  0
   -5.2500    9.0933    0.0000 C   0  0  0  0  0  0  0  0  0  0  0  0
   -6.0000   10.3923    0.0000 C   0  0  0  0  0  0  0  0  0  0  0  0
   -7.5000   10.3923    0.0000 C   0  0  0  0  0  0  0  0  0  0  0  0
   -8.2500   11.6913    0.0000 C   0  0  0  0  0  0  0  0  0  0  0  0
   -7.5000   12.9904    0.0000 C   0  0  0  0  0  0  0  0  0  0  0  0
   -8.2500   14.2894    0.0000 C   0  0  0  0  0  0  0  0  0  0  0  0
   -7.5000   15.5885    0.0000 N   0  0  0  0  0  0  0  0  0  0  0  0
   -6.0000   15.5885    0.0000 C   0  0  0  0  0  0  0  0  0  0  0  0
   -5.2500   14.2894    0.0000 O   0  0  0  0  0  0  0  0  0  0  0  0
   -5.2500   16.8875    0.0000 C   0  0  0  0  0  0  0  0  0  0  0  0
   -5.2500   18.3875    0.0000 C   0  0  0  0  0  0  0  0  0  0  0  0
   -3.9510   17.6375    0.0000 C   0  0  0  0  0  0  0  0  0  0  0  0
   -9.7500   14.2894    0.0000 C   0  0  0  0  0  0  0  0  0  0  0  0
  -10.5000   12.9904    0.0000 C   0  0  0  0  0  0  0  0  0  0  0  0
   -9.7500   11.6913    0.0000 C   0  0  0  0  0  0  0  0  0  0  0  0
  -10.5000   10.3923    0.0000 O   0  0  0  0  0  0  0  0  0  0  0  0
  -12.0000   10.3923    0.0000 C   0  0  0  0  0  0  0  0  0  0  0  0
  -13.5000   10.3923    0.0000 F   0  0  0  0  0  0  0  0  0  0  0  0
  -12.0000    8.8923    0.0000 F   0  0  0  0  0  0  0  0  0  0  0  0
  -12.0000   11.8923    0.0000 F   0  0  0  0  0  0  0  0  0  0  0  0
   -8.2500    9.0933    0.0000 C   0  0  0  0  0  0  0  0  0  0  0  0
   -7.5000    7.7942    0.0000 C   0  0  0  0  0  0  0  0  0  0  0  0
   -6.0000    2.5981    0.0000 C   0  0  0  0  0  0  0  0  0  0  0  0
   -5.2500    1.2990    0.0000 C   0  0  0  0  0  0  0  0  0  0  0  0
   -0.7500    1.2990    0.0000 C   0  0  0  0  0  0  0  0  0  0  0  0
    0.7500    1.2990    0.0000 C   0  0  0  0  0  0  0  0  0  0  0  0
  1  2  1  0
  2  3  1  0
  3  4  1  0
  4  5  2  0
  4  6  2  0
  4  7  1  0
  7  8  1  0
  8  9  1  0
  9 10  1  0
 10 11  1  0
 11 12  1  0
 12 13  2  0
 13 14  1  0
 14 15  2  0
 15 16  1  0
 16 17  1  0
 17 18  2  0
 17 19  1  0
 19 20  2  0
 20 21  1  0
 21 22  2  0
 22 23  1  0
 23 24  2  0
 24 25  1  0
 25 26  1  0
 26 27  1  0
 27 28  2  0
 27 29  1  0
 29 30  1  0
 30 31  1  0
 25 32  2  0
 32 33  1  0
 33 34  2  0
 34 35  1  0
 35 36  1  0
 36 37  1  0
 36 38  1  0
 36 39  1  0
 22 40  1  0
 40 41  2  0
 15 42  1  0
 42 43  2  0
 10 44  1  0
 44 45  1  0
 45  7  1  0
 43 12  1  0
 41 19  1  0
 34 23  1  0
 31 29  1  0
M  END
>  <Synonyms>  (95) 
AZD 7295|AZD-7295|AZD7295

>  <Research Codes>  (95) 
AZD7295

>  <Phase>  (95) 
1

>  <Applicants>  (95) 
nan

>  <USAN Stem>  (95) 
nan

>  <USAN Year>  (95) 
nan

>  <USAN Stem Definition>  (95) 
nan

>  <USAN Stem Substem>  (95) 
nan

>  <First Approval>  (95) 
nan

>  <ATC Codes>  (95) 
nan

>  <Level 4 ATC Codes>  (95) 
nan

>  <Level 3 ATC Codes>  (95) 
nan

>  <Level 2 ATC Codes>  (95) 
nan

>  <Level 1 ATC Codes>  (95) 
nan

>  <Indication Class>  (95) 
nan

>  <Patent>  (95) 
nan

>  <Drug Type>  (95) 
1:Synthetic Small Molecule

>  <Passes Rule of Five>  (95) 
False

>  <First In Class>  (95) 
False

>  <Chirality>  (95) 
Achiral Molecule

>  <Prodrug>  (95) 
False

>  <Oral>  (95) 
False

>  <Parenteral>  (95) 
False

>  <Topical>  (95) 
False

>  <Black Box>  (95) 
False

>  <Availability Type>  (95) 
Unknown

>  <Withdrawn Year>  (95) 
nan

>  <Withdrawn Reason>  (95) 
nan

>  <Withdrawn Country>  (95) 
nan

>  <Withdrawn Class>  (95) 
nan

>  <SMILES>  (95) 
CCCS(=O)(=O)N1CCN(Cc2ccc(NC(=O)c3ccc(-c4cc(NC(=O)C5CC5)ccc4OC(F)(F)F)cc3)cc2)CC1

>  <InChi Key>  (95) 
MAQDQJWCSSCURR-UHFFFAOYSA-N

$$$$
CHEMBL4297355
     RDKit          2D

 26 29  0  0  0  0  0  0  0  0999 V2000
    1.2990   -5.8573    0.0000 C   0  0  0  0  0  0  0  0  0  0  0  0
    0.0000   -5.1073    0.0000 C   0  0  0  0  0  0  0  0  0  0  0  0
   -1.2990   -5.8573    0.0000 C   0  0  0  0  0  0  0  0  0  0  0  0
   -2.0490   -7.1563    0.0000 C   0  0  0  0  0  0  0  0  0  0  0  0
   -2.7990   -5.8573    0.0000 C   0  0  0  0  0  0  0  0  0  0  0  0
    0.0000   -3.6073    0.0000 N   0  0  0  0  0  0  0  0  0  0  0  0
    1.2135   -2.7256    0.0000 C   0  0  0  0  0  0  0  0  0  0  0  0
    0.7500   -1.2990    0.0000 C   0  0  0  0  0  0  0  0  0  0  0  0
    1.5000    0.0000    0.0000 C   0  0  0  0  0  0  0  0  0  0  0  0
    0.7500    1.2990    0.0000 C   0  0  0  0  0  0  0  0  0  0  0  0
    1.5000    2.5981    0.0000 C   0  0  0  0  0  0  0  0  0  0  0  0
    0.8899    3.9684    0.0000 C   0  0  0  0  0  0  0  0  0  0  0  0
    2.0046    4.9721    0.0000 C   0  0  0  0  0  0  0  0  0  0  0  0
    1.8478    6.4639    0.0000 C   0  0  0  0  0  0  0  0  0  0  0  0
    0.4775    7.0740    0.0000 O   0  0  0  0  0  0  0  0  0  0  0  0
    3.0613    7.3456    0.0000 N   0  0  0  0  0  0  0  0  0  0  0  0
    2.9046    8.8373    0.0000 C   0  0  0  0  0  0  0  0  0  0  0  0
    4.4317    6.7354    0.0000 C   0  0  0  0  0  0  0  0  0  0  0  0
    3.3037    4.2221    0.0000 N   0  0  0  0  0  0  0  0  0  0  0  0
    2.9918    2.7549    0.0000 O   0  0  0  0  0  0  0  0  0  0  0  0
   -0.7500    1.2990    0.0000 C   0  0  0  0  0  0  0  0  0  0  0  0
   -1.5000    0.0000    0.0000 C   0  0  0  0  0  0  0  0  0  0  0  0
   -3.0000    0.0000    0.0000 Cl  0  0  0  0  0  0  0  0  0  0  0  0
   -0.7500   -1.2990    0.0000 C   0  0  0  0  0  0  0  0  0  0  0  0
   -1.2135   -2.7256    0.0000 C   0  0  0  0  0  0  0  0  0  0  0  0
   -2.6401   -3.1891    0.0000 O   0  0  0  0  0  0  0  0  0  0  0  0
  2  1  1  1
  2  3  1  0
  3  4  1  0
  4  5  1  0
  2  6  1  0
  6  7  1  0
  7  8  1  0
  8  9  2  0
  9 10  1  0
 10 11  1  0
 11 12  2  0
 12 13  1  0
 13 14  1  0
 14 15  2  0
 14 16  1  0
 16 17  1  0
 16 18  1  0
 13 19  2  0
 19 20  1  0
 10 21  2  0
 21 22  1  0
 22 23  1  0
 22 24  2  0
 24 25  1  0
 25 26  2  0
  5  3  1  0
 25  6  1  0
 24  8  1  0
 20 11  1  0
M  END
>  <Synonyms>  (96) 
AZD 8418|AZD-8418|AZD8418

>  <Research Codes>  (96) 
AZD8418

>  <Phase>  (96) 
1

>  <Applicants>  (96) 
nan

>  <USAN Stem>  (96) 
nan

>  <USAN Year>  (96) 
nan

>  <USAN Stem Definition>  (96) 
nan

>  <USAN Stem Substem>  (96) 
nan

>  <First Approval>  (96) 
nan

>  <ATC Codes>  (96) 
nan

>  <Level 4 ATC Codes>  (96) 
nan

>  <Level 3 ATC Codes>  (96) 
nan

>  <Level 2 ATC Codes>  (96) 
nan

>  <Level 1 ATC Codes>  (96) 
nan

>  <Indication Class>  (96) 
nan

>  <Patent>  (96) 
nan

>  <Drug Type>  (96) 
1:Synthetic Small Molecule

>  <Passes Rule of Five>  (96) 
True

>  <First In Class>  (96) 
False

>  <Chirality>  (96) 
Single Stereoisomer

>  <Prodrug>  (96) 
False

>  <Oral>  (96) 
False

>  <Parenteral>  (96) 
False

>  <Topical>  (96) 
False

>  <Black Box>  (96) 
False

>  <Availability Type>  (96) 
Unknown

>  <Withdrawn Year>  (96) 
nan

>  <Withdrawn Reason>  (96) 
nan

>  <Withdrawn Country>  (96) 
nan

>  <Withdrawn Class>  (96) 
nan

>  <SMILES>  (96) 
C[C@@H](C1CC1)N1Cc2cc(-c3cc(C(=O)N(C)C)no3)cc(Cl)c2C1=O

>  <InChi Key>  (96) 
MCPBSUCAISQZQK-JTQLQIEISA-N

$$$$
CHEMBL4297473
     RDKit          2D

 29 32  0  0  0  0  0  0  0  0999 V2000
   -5.5921   -2.7382    0.0000 C   0  0  0  0  0  0  0  0  0  0  0  0
   -5.5921   -4.2382    0.0000 C   0  0  0  0  0  0  0  0  0  0  0  0
   -6.8056   -5.1199    0.0000 O   0  0  0  0  0  0  0  0  0  0  0  0
   -6.3421   -6.5465    0.0000 C   0  0  0  0  0  0  0  0  0  0  0  0
   -4.8421   -6.5465    0.0000 C   0  0  0  0  0  0  0  0  0  0  0  0
   -4.3786   -5.1199    0.0000 C   0  0  0  0  0  0  0  0  0  0  0  0
   -2.9520   -4.6564    0.0000 C   0  0  0  0  0  0  0  0  0  0  0  0
   -1.8373   -5.6601    0.0000 O   0  0  0  0  0  0  0  0  0  0  0  0
   -2.6401   -3.1891    0.0000 N   0  0  0  0  0  0  0  0  0  0  0  0
   -1.2135   -2.7256    0.0000 C   0  0  0  0  0  0  0  0  0  0  0  0
   -0.0000   -3.6073    0.0000 N   0  0  0  0  0  0  0  0  0  0  0  0
    1.2135   -2.7256    0.0000 N   0  0  0  0  0  0  0  0  0  0  0  0
    2.6401   -3.1891    0.0000 C   0  0  0  0  0  0  0  0  0  0  0  0
    2.9520   -4.6564    0.0000 C   0  0  0  0  0  0  0  0  0  0  0  0
    1.8373   -5.6601    0.0000 C   0  0  0  0  0  0  0  0  0  0  0  0
    2.1491   -7.1273    0.0000 C   0  0  0  0  0  0  0  0  0  0  0  0
    3.5757   -7.5908    0.0000 C   0  0  0  0  0  0  0  0  0  0  0  0
    3.8876   -9.0580    0.0000 C   0  0  0  0  0  0  0  0  0  0  0  0
    4.1994  -10.5253    0.0000 F   0  0  0  0  0  0  0  0  0  0  0  0
    2.4204   -9.3699    0.0000 F   0  0  0  0  0  0  0  0  0  0  0  0
    5.3548   -8.7462    0.0000 F   0  0  0  0  0  0  0  0  0  0  0  0
    4.6904   -6.5871    0.0000 C   0  0  0  0  0  0  0  0  0  0  0  0
    4.3786   -5.1199    0.0000 C   0  0  0  0  0  0  0  0  0  0  0  0
    0.7500   -1.2990    0.0000 C   0  0  0  0  0  0  0  0  0  0  0  0
    1.5000    0.0000    0.0000 C   0  0  0  0  0  0  0  0  0  0  0  0
    0.7500    1.2990    0.0000 C   0  0  0  0  0  0  0  0  0  0  0  0
   -0.7500    1.2990    0.0000 C   0  0  0  0  0  0  0  0  0  0  0  0
   -1.5000    0.0000    0.0000 C   0  0  0  0  0  0  0  0  0  0  0  0
   -0.7500   -1.2990    0.0000 C   0  0  0  0  0  0  0  0  0  0  0  0
  1  2  1  0
  2  3  1  0
  3  4  1  0
  4  5  2  0
  5  6  1  0
  6  7  1  0
  7  8  2  0
  7  9  1  0
  9 10  2  3
 10 11  1  0
 11 12  1  0
 12 13  1  0
 13 14  1  0
 14 15  2  0
 15 16  1  0
 16 17  2  0
 17 18  1  0
 18 19  1  0
 18 20  1  0
 18 21  1  0
 17 22  1  0
 22 23  2  0
 12 24  1  0
 24 25  2  0
 25 26  1  0
 26 27  2  0
 27 28  1  0
 28 29  2  0
  6  2  2  0
 29 10  1  0
 23 14  1  0
 29 24  1  0
M  END
>  <Synonyms>  (97) 
NP-G2-044

>  <Research Codes>  (97) 
NP-G2-044

>  <Phase>  (97) 
1

>  <Applicants>  (97) 
nan

>  <USAN Stem>  (97) 
nan

>  <USAN Year>  (97) 
nan

>  <USAN Stem Definition>  (97) 
nan

>  <USAN Stem Substem>  (97) 
nan

>  <First Approval>  (97) 
nan

>  <ATC Codes>  (97) 
nan

>  <Level 4 ATC Codes>  (97) 
nan

>  <Level 3 ATC Codes>  (97) 
nan

>  <Level 2 ATC Codes>  (97) 
nan

>  <Level 1 ATC Codes>  (97) 
nan

>  <Indication Class>  (97) 
nan

>  <Patent>  (97) 
nan

>  <Drug Type>  (97) 
1:Synthetic Small Molecule

>  <Passes Rule of Five>  (97) 
False

>  <First In Class>  (97) 
False

>  <Chirality>  (97) 
Achiral Molecule

>  <Prodrug>  (97) 
False

>  <Oral>  (97) 
False

>  <Parenteral>  (97) 
False

>  <Topical>  (97) 
False

>  <Black Box>  (97) 
False

>  <Availability Type>  (97) 
Unknown

>  <Withdrawn Year>  (97) 
nan

>  <Withdrawn Reason>  (97) 
nan

>  <Withdrawn Country>  (97) 
nan

>  <Withdrawn Class>  (97) 
nan

>  <SMILES>  (97) 
Cc1occc1C(=O)Nc1nn(Cc2ccc(C(F)(F)F)cc2)c2ccccc12

>  <InChi Key>  (97) 
XLLRLAABUFOJPC-UHFFFAOYSA-N

$$$$
CHEMBL4297482
     RDKit          2D

 46 52  0  0  0  0  0  0  0  0999 V2000
    8.3392  -12.1301    0.0000 C   0  0  0  0  0  0  0  0  0  0  0  0
    6.8720  -12.4420    0.0000 C   0  0  0  0  0  0  0  0  0  0  0  0
    5.7572  -11.4383    0.0000 C   0  0  0  0  0  0  0  0  0  0  0  0
    4.4582  -12.1883    0.0000 C   0  0  0  0  0  0  0  0  0  0  0  0
    4.7701  -13.6555    0.0000 N   0  0  0  0  0  0  0  0  0  0  0  0
    6.2618  -13.8123    0.0000 N   0  0  0  0  0  0  0  0  0  0  0  0
    7.0118  -15.1114    0.0000 C   0  0  0  0  0  0  0  0  0  0  0  0
    2.9958  -12.5221    0.0000 C   0  0  0  0  0  0  0  0  0  0  0  0
    1.5000  -12.4100    0.0000 S   0  0  0  0  0  0  0  0  0  0  0  0
    0.1037  -11.8620    0.0000 C   0  0  0  0  0  0  0  0  0  0  0  0
   -1.0691  -10.9268    0.0000 C   0  0  0  0  0  0  0  0  0  0  0  0
   -1.9140   -9.6874    0.0000 C   0  0  0  0  0  0  0  0  0  0  0  0
   -2.3562   -8.2540    0.0000 C   0  0  0  0  0  0  0  0  0  0  0  0
   -3.4404   -9.2906    0.0000 N   0  0  0  0  0  0  0  0  0  0  0  0
   -4.9163   -9.0228    0.0000 C   0  0  0  0  0  0  0  0  0  0  0  0
   -2.7895  -10.6421    0.0000 N   0  0  0  0  0  0  0  0  0  0  0  0
   -2.3562   -6.7540    0.0000 C   0  0  0  0  0  0  0  0  0  0  0  0
   -1.9140   -5.3207    0.0000 S   0  0  0  0  0  0  0  0  0  0  0  0
   -0.7500   -3.8971    0.0000 C   0  0  0  0  0  0  0  0  0  0  0  0
    0.7500   -3.8971    0.0000 C   0  0  0  0  0  0  0  0  0  0  0  0
    1.5000   -2.5981    0.0000 C   0  0  0  0  0  0  0  0  0  0  0  0
    0.7500   -1.2990    0.0000 C   0  0  0  0  0  0  0  0  0  0  0  0
    1.5000    0.0000    0.0000 C   0  0  0  0  0  0  0  0  0  0  0  0
    0.7500    1.2990    0.0000 C   0  0  0  0  0  0  0  0  0  0  0  0
   -0.7500    1.2990    0.0000 C   0  0  0  0  0  0  0  0  0  0  0  0
   -1.5000    0.0000    0.0000 C   0  0  0  0  0  0  0  0  0  0  0  0
   -0.7500   -1.2990    0.0000 C   0  0  0  0  0  0  0  0  0  0  0  0
   -1.5000   -2.5981    0.0000 C   0  0  0  0  0  0  0  0  0  0  0  0
    2.9958   -2.4860    0.0000 O   0  0  0  0  0  0  0  0  0  0  0  0
    4.4582   -2.8198    0.0000 C   0  0  0  0  0  0  0  0  0  0  0  0
    5.7572   -3.5698    0.0000 C   0  0  0  0  0  0  0  0  0  0  0  0
    6.7775   -4.6693    0.0000 C   0  0  0  0  0  0  0  0  0  0  0  0
    7.4283   -6.0208    0.0000 C   0  0  0  0  0  0  0  0  0  0  0  0
    8.8549   -6.4843    0.0000 C   0  0  0  0  0  0  0  0  0  0  0  0
   10.0684   -5.6026    0.0000 C   0  0  0  0  0  0  0  0  0  0  0  0
   11.4387   -6.2127    0.0000 O   0  0  0  0  0  0  0  0  0  0  0  0
    9.9116   -4.1109    0.0000 O   0  0  0  0  0  0  0  0  0  0  0  0
    8.8549   -7.9843    0.0000 N   0  0  0  0  0  0  0  0  0  0  0  0
   10.0684   -8.8660    0.0000 C   0  0  0  0  0  0  0  0  0  0  0  0
    7.4283   -8.9873    0.0000 C   0  0  0  0  0  0  0  0  0  0  0  0
    6.7775  -10.3387    0.0000 C   0  0  0  0  0  0  0  0  0  0  0  0
    5.4527   -9.5446    0.0000 C   0  0  0  0  0  0  0  0  0  0  0  0
    4.3532  -10.5648    0.0000 Cl  0  0  0  0  0  0  0  0  0  0  0  0
    5.1189   -8.0822    0.0000 C   0  0  0  0  0  0  0  0  0  0  0  0
    6.2185   -7.0619    0.0000 C   0  0  0  0  0  0  0  0  0  0  0  0
    7.6519   -7.5040    0.0000 C   0  0  0  0  0  0  0  0  0  0  0  0
  1  2  1  0
  2  3  2  0
  3  4  1  0
  4  5  2  0
  5  6  1  0
  6  7  1  0
  4  8  1  0
  8  9  1  0
  9 10  1  0
 10 11  1  0
 11 12  1  0
 12 13  2  0
 13 14  1  0
 14 15  1  0
 14 16  1  0
 13 17  1  0
 17 18  1  0
 18 19  1  0
 19 20  1  0
 20 21  2  0
 21 22  1  0
 22 23  2  0
 23 24  1  0
 24 25  2  0
 25 26  1  0
 26 27  2  0
 27 28  1  0
 21 29  1  0
 29 30  1  0
 30 31  1  0
 31 32  1  0
 32 33  1  0
 33 34  2  0
 34 35  1  0
 35 36  2  0
 35 37  1  0
 34 38  1  0
 38 39  1  0
 38 40  1  0
 40 41  2  0
 41 42  1  0
 42 43  1  0
 42 44  2  0
 44 45  1  0
 45 46  2  0
  6  2  1  0
 16 11  2  0
 28 19  2  0
 46 33  1  0
 41  3  1  0
 27 22  1  0
 46 40  1  0
M  END
>  <Synonyms>  (98) 
AZD-5991|AZD5991

>  <Research Codes>  (98) 
AZD-5991|AZD5991

>  <Phase>  (98) 
1

>  <Applicants>  (98) 
nan

>  <USAN Stem>  (98) 
nan

>  <USAN Year>  (98) 
nan

>  <USAN Stem Definition>  (98) 
nan

>  <USAN Stem Substem>  (98) 
nan

>  <First Approval>  (98) 
nan

>  <ATC Codes>  (98) 
nan

>  <Level 4 ATC Codes>  (98) 
nan

>  <Level 3 ATC Codes>  (98) 
nan

>  <Level 2 ATC Codes>  (98) 
nan

>  <Level 1 ATC Codes>  (98) 
nan

>  <Indication Class>  (98) 
nan

>  <Patent>  (98) 
nan

>  <Drug Type>  (98) 
7:Natural Product-derived

>  <Passes Rule of Five>  (98) 
False

>  <First In Class>  (98) 
False

>  <Chirality>  (98) 
Achiral Molecule

>  <Prodrug>  (98) 
False

>  <Oral>  (98) 
False

>  <Parenteral>  (98) 
False

>  <Topical>  (98) 
False

>  <Black Box>  (98) 
False

>  <Availability Type>  (98) 
Unknown

>  <Withdrawn Year>  (98) 
nan

>  <Withdrawn Reason>  (98) 
nan

>  <Withdrawn Country>  (98) 
nan

>  <Withdrawn Class>  (98) 
nan

>  <SMILES>  (98) 
Cc1c2c(nn1C)CSCc1cc(n(C)n1)CSc1cc(c3ccccc3c1)OCCCc1c(C(=O)O)n(C)c3c-2c(Cl)ccc13

>  <InChi Key>  (98) 
KBQCEQAXHPIRTF-UHFFFAOYSA-N

$$$$
CHEMBL4298137
     RDKit          2D

 18 19  0  0  0  0  0  0  0  0999 V2000
    3.0000    0.0000    0.0000 C   0  0  0  0  0  0  0  0  0  0  0  0
    1.5000    0.0000    0.0000 C   0  0  0  0  0  0  0  0  0  0  0  0
    0.7500   -1.2990    0.0000 C   0  0  0  0  0  0  0  0  0  0  0  0
   -0.7500   -1.2990    0.0000 C   0  0  0  0  0  0  0  0  0  0  0  0
   -1.5000    0.0000    0.0000 C   0  0  0  0  0  0  0  0  0  0  0  0
   -0.7500    1.2990    0.0000 N   0  0  0  0  0  0  0  0  0  0  0  0
   -2.1766    0.8355    0.0000 C   0  0  0  0  0  0  0  0  0  0  0  0
   -3.3901    1.7172    0.0000 O   0  0  0  0  0  0  0  0  0  0  0  0
   -2.1766   -0.6645    0.0000 N   0  0  0  0  0  0  0  0  0  0  0  0
   -3.3901   -1.5462    0.0000 O   0  0  0  0  0  0  0  0  0  0  0  0
   -3.2333   -3.0379    0.0000 S   0  0  0  0  0  0  0  0  0  0  0  0
   -1.7415   -2.8812    0.0000 O   0  0  0  0  0  0  0  0  0  0  0  0
   -4.7251   -3.1947    0.0000 O   0  0  0  0  0  0  0  0  0  0  0  0
   -3.0765   -4.5297    0.0000 O   0  0  0  0  0  0  0  0  0  0  0  0
    0.7500    1.2990    0.0000 C   0  0  0  0  0  0  0  0  0  0  0  0
    1.5000    2.5981    0.0000 C   0  0  0  0  0  0  0  0  0  0  0  0
    0.7500    3.8971    0.0000 N   0  0  0  0  0  0  0  0  0  0  0  0
    3.0000    2.5981    0.0000 O   0  0  0  0  0  0  0  0  0  0  0  0
  1  2  1  0
  2  3  1  0
  4  3  1  1
  4  5  1  0
  5  6  1  0
  6  7  1  0
  7  8  2  0
  7  9  1  0
  9 10  1  0
 10 11  1  0
 11 12  2  0
 11 13  2  0
 11 14  1  0
  6 15  1  0
 15 16  1  0
 16 17  1  0
 16 18  2  0
 15  2  2  0
  9  4  1  0
M  END
>  <Synonyms>  (99) 
DURLOBACTAM|EXT2514

>  <Research Codes>  (99) 
EXT2514

>  <Phase>  (99) 
1

>  <Applicants>  (99) 
nan

>  <USAN Stem>  (99) 
'-bactam'

>  <USAN Year>  (99) 
2019.0

>  <USAN Stem Definition>  (99) 
beta-lactamase inhibitors

>  <USAN Stem Substem>  (99) 
'-bactam(-bactam)'

>  <First Approval>  (99) 
nan

>  <ATC Codes>  (99) 
nan

>  <Level 4 ATC Codes>  (99) 
nan

>  <Level 3 ATC Codes>  (99) 
nan

>  <Level 2 ATC Codes>  (99) 
nan

>  <Level 1 ATC Codes>  (99) 
nan

>  <Indication Class>  (99) 
nan

>  <Patent>  (99) 
nan

>  <Drug Type>  (99) 
1:Synthetic Small Molecule

>  <Passes Rule of Five>  (99) 
True

>  <First In Class>  (99) 
False

>  <Chirality>  (99) 
Single Stereoisomer

>  <Prodrug>  (99) 
False

>  <Oral>  (99) 
False

>  <Parenteral>  (99) 
False

>  <Topical>  (99) 
False

>  <Black Box>  (99) 
False

>  <Availability Type>  (99) 
Unknown

>  <Withdrawn Year>  (99) 
nan

>  <Withdrawn Reason>  (99) 
nan

>  <Withdrawn Country>  (99) 
nan

>  <Withdrawn Class>  (99) 
nan

>  <SMILES>  (99) 
CC1=C[C@@H]2CN(C(=O)N2OS(=O)(=O)O)[C@@H]1C(N)=O

>  <InChi Key>  (99) 
GKVWUKZUENDYST-RXMQYKEDSA-N

$$$$
CHEMBL4301491
     RDKit          2D

 44 50  0  0  0  0  0  0  0  0999 V2000
    5.2500   -1.2990    0.0000 C   0  0  0  0  0  0  0  0  0  0  0  0
    3.7500   -1.2990    0.0000 C   0  0  0  0  0  0  0  0  0  0  0  0
    3.0000    0.0000    0.0000 C   0  0  0  0  0  0  0  0  0  0  0  0
    1.5000    0.0000    0.0000 C   0  0  0  0  0  0  0  0  0  0  0  0
    0.7500   -1.2990    0.0000 C   0  0  0  0  0  0  0  0  0  0  0  0
    1.5000   -2.5981    0.0000 O   0  0  0  0  0  0  0  0  0  0  0  0
    0.7500   -3.8971    0.0000 C   0  0  0  0  0  0  0  0  0  0  0  0
   -0.7500   -3.8971    0.0000 O   0  0  0  0  0  0  0  0  0  0  0  0
    1.5000   -5.1962    0.0000 N   0  0  0  0  0  0  0  0  0  0  0  0
    0.7500   -6.4952    0.0000 C   0  0  0  0  0  0  0  0  0  0  0  0
    1.5000   -7.7942    0.0000 C   0  0  0  0  0  0  0  0  0  0  0  0
    3.0000   -7.7942    0.0000 C   0  0  0  0  0  0  0  0  0  0  0  0
    3.7500   -9.0933    0.0000 N   0  0  0  0  0  0  0  0  0  0  0  0
    3.0000  -10.3923    0.0000 C   0  0  0  0  0  0  0  0  0  0  0  0
    3.7500  -11.6913    0.0000 C   0  0  0  0  0  0  0  0  0  0  0  0
    5.2500  -11.6913    0.0000 C   0  0  0  0  0  0  0  0  0  0  0  0
    6.0000  -10.3923    0.0000 C   0  0  0  0  0  0  0  0  0  0  0  0
    5.2500   -9.0933    0.0000 C   0  0  0  0  0  0  0  0  0  0  0  0
    3.7500   -6.4952    0.0000 C   0  0  0  0  0  0  0  0  0  0  0  0
    3.0000   -5.1962    0.0000 C   0  0  0  0  0  0  0  0  0  0  0  0
   -0.7500   -1.2990    0.0000 C   0  0  0  0  0  0  0  0  0  0  0  0
   -1.5000    0.0000    0.0000 C   0  0  0  0  0  0  0  0  0  0  0  0
   -0.7500    1.2990    0.0000 C   0  0  0  0  0  0  0  0  0  0  0  0
   -1.5000    2.5981    0.0000 N   0  0  0  0  0  0  0  0  0  0  0  0
   -0.7500    3.8971    0.0000 C   0  0  0  0  0  0  0  0  0  0  0  0
    0.7500    3.8971    0.0000 C   0  0  0  0  0  0  0  0  0  0  0  0
    1.5000    2.5981    0.0000 C   0  0  0  0  0  0  0  0  0  0  0  0
    0.7500    1.2990    0.0000 C   0  0  0  0  0  0  0  0  0  0  0  0
    1.2135    5.3237    0.0000 C   0  0  0  0  0  0  0  0  0  0  0  0
   -0.0000    6.2054    0.0000 N   0  0  0  0  0  0  0  0  0  0  0  0
   -1.2135    5.3237    0.0000 C   0  0  0  0  0  0  0  0  0  0  0  0
   -2.5838    5.9338    0.0000 C   0  0  0  0  0  0  0  0  0  0  0  0
   -2.7406    7.4256    0.0000 C   0  0  0  0  0  0  0  0  0  0  0  0
   -1.5271    8.3073    0.0000 C   0  0  0  0  0  0  0  0  0  0  0  0
   -0.1568    7.6972    0.0000 C   0  0  0  0  0  0  0  0  0  0  0  0
    1.0567    8.5788    0.0000 O   0  0  0  0  0  0  0  0  0  0  0  0
   -1.6839    9.7990    0.0000 C   0  0  0  0  0  0  0  0  0  0  0  0
   -3.0542   10.4092    0.0000 O   0  0  0  0  0  0  0  0  0  0  0  0
   -4.2677    9.5275    0.0000 C   0  0  0  0  0  0  0  0  0  0  0  0
   -5.6381   10.1376    0.0000 O   0  0  0  0  0  0  0  0  0  0  0  0
   -4.1110    8.0357    0.0000 C   0  0  0  0  0  0  0  0  0  0  0  0
   -5.6073    8.1403    0.0000 O   0  0  0  0  0  0  0  0  0  0  0  0
   -4.4738    6.5802    0.0000 C   0  0  0  0  0  0  0  0  0  0  0  0
   -5.9157    6.1668    0.0000 C   0  0  0  0  0  0  0  0  0  0  0  0
  1  2  2  0
  2  3  1  0
  3  4  1  0
  4  5  2  0
  5  6  1  0
  6  7  1  0
  7  8  2  0
  7  9  1  0
  9 10  1  0
 10 11  1  0
 11 12  1  0
 12 13  1  0
 13 14  1  0
 14 15  1  0
 15 16  1  0
 16 17  1  0
 17 18  1  0
 12 19  1  0
 19 20  1  0
  5 21  1  0
 21 22  2  0
 22 23  1  0
 23 24  2  0
 24 25  1  0
 25 26  2  0
 26 27  1  0
 27 28  2  0
 26 29  1  0
 29 30  1  0
 30 31  1  0
 31 32  2  0
 32 33  1  0
 33 34  2  0
 34 35  1  0
 35 36  2  0
 34 37  1  0
 37 38  1  0
 38 39  1  0
 39 40  2  0
 39 41  1  0
 41 42  1  6
 41 43  1  0
 43 44  1  0
 28  4  1  0
 35 30  1  0
 20  9  1  0
 28 23  1  0
 41 33  1  0
 18 13  1  0
 31 25  1  0
M  END
>  <Synonyms>  (100) 
nan

>  <Research Codes>  (100) 
nan

>  <Phase>  (100) 
1

>  <Applicants>  (100) 
nan

>  <USAN Stem>  (100) 
'-tecan'

>  <USAN Year>  (100) 
nan

>  <USAN Stem Definition>  (100) 
antineoplastics (camptothecine derivatives)

>  <USAN Stem Substem>  (100) 
'-tecan(-tecan)'

>  <First Approval>  (100) 
nan

>  <ATC Codes>  (100) 
nan

>  <Level 4 ATC Codes>  (100) 
nan

>  <Level 3 ATC Codes>  (100) 
nan

>  <Level 2 ATC Codes>  (100) 
nan

>  <Level 1 ATC Codes>  (100) 
nan

>  <Indication Class>  (100) 
nan

>  <Patent>  (100) 
nan

>  <Drug Type>  (100) 
7:Natural Product-derived

>  <Passes Rule of Five>  (100) 
False

>  <First In Class>  (100) 
False

>  <Chirality>  (100) 
Single Stereoisomer

>  <Prodrug>  (100) 
False

>  <Oral>  (100) 
False

>  <Parenteral>  (100) 
False

>  <Topical>  (100) 
False

>  <Black Box>  (100) 
False

>  <Availability Type>  (100) 
Unknown

>  <Withdrawn Year>  (100) 
nan

>  <Withdrawn Reason>  (100) 
nan

>  <Withdrawn Country>  (100) 
nan

>  <Withdrawn Class>  (100) 
nan

>  <SMILES>  (100) 
C=CCc1c(OC(=O)N2CCC(N3CCCCC3)CC2)ccc2nc3c(cc12)Cn1c-3cc2c(c1=O)COC(=O)[C@]2(O)CC

>  <InChi Key>  (100) 
XPVBLGRILRVSLF-UMSFTDKQSA-N

$$$$
CHEMBL4297429
     RDKit          2D

 11 10  0  0  0  0  0  0  0  0999 V2000
    0.0000    0.0000    0.0000 C   0  0  0  0  0  0  0  0  0  0  0  0
    1.2990    0.7500    0.0000 C   0  0  0  0  0  0  0  0  0  0  0  0
    1.2990    2.2500    0.0000 O   0  0  0  0  0  0  0  0  0  0  0  0
    2.5981   -0.0000    0.0000 C   0  0  0  0  0  0  0  0  0  0  0  0
    2.5981   -1.5000    0.0000 O   0  0  0  0  0  0  0  0  0  0  0  0
    3.8971    0.7500    0.0000 C   0  0  0  0  0  0  0  0  0  0  0  0
    3.8971    2.2500    0.0000 O   0  0  0  0  0  0  0  0  0  0  0  0
    5.1962   -0.0000    0.0000 C   0  0  0  0  0  0  0  0  0  0  0  0
    5.1962   -1.5000    0.0000 F   0  0  0  0  0  0  0  0  0  0  0  0
    6.4952    0.7500    0.0000 C   0  0  0  0  0  0  0  0  0  0  0  0
    7.7942   -0.0000    0.0000 O   0  0  0  0  0  0  0  0  0  0  0  0
  2  1  1  6
  2  3  1  0
  2  4  1  0
  4  5  1  6
  4  6  1  0
  6  7  1  1
  6  8  1  0
  8  9  1  0
  8 10  1  0
 10 11  2  0
M  END
>  <Synonyms>  (101) 
2-FLUOROFUCOSE|SGN-2FF

>  <Research Codes>  (101) 
nan

>  <Phase>  (101) 
1

>  <Applicants>  (101) 
nan

>  <USAN Stem>  (101) 
nan

>  <USAN Year>  (101) 
nan

>  <USAN Stem Definition>  (101) 
nan

>  <USAN Stem Substem>  (101) 
nan

>  <First Approval>  (101) 
nan

>  <ATC Codes>  (101) 
nan

>  <Level 4 ATC Codes>  (101) 
nan

>  <Level 3 ATC Codes>  (101) 
nan

>  <Level 2 ATC Codes>  (101) 
nan

>  <Level 1 ATC Codes>  (101) 
nan

>  <Indication Class>  (101) 
nan

>  <Patent>  (101) 
nan

>  <Drug Type>  (101) 
1:Synthetic Small Molecule

>  <Passes Rule of Five>  (101) 
True

>  <First In Class>  (101) 
False

>  <Chirality>  (101) 
Single Stereoisomer

>  <Prodrug>  (101) 
False

>  <Oral>  (101) 
False

>  <Parenteral>  (101) 
False

>  <Topical>  (101) 
False

>  <Black Box>  (101) 
False

>  <Availability Type>  (101) 
Unknown

>  <Withdrawn Year>  (101) 
nan

>  <Withdrawn Reason>  (101) 
nan

>  <Withdrawn Country>  (101) 
nan

>  <Withdrawn Class>  (101) 
nan

>  <SMILES>  (101) 
C[C@H](O)[C@@H](O)[C@@H](O)[C@H](F)C=O

>  <InChi Key>  (101) 
SQTFKIKSQNCWGJ-CEZCPVKQSA-N

$$$$
CHEMBL4297417
     RDKit          2D

 25 28  0  0  0  0  0  0  0  0999 V2000
   -0.4182   -6.2474    0.0000 C   0  0  0  0  0  0  0  0  0  0  0  0
    0.4635   -5.0339    0.0000 N   0  0  0  0  0  0  0  0  0  0  0  0
    1.9635   -5.0339    0.0000 C   0  0  0  0  0  0  0  0  0  0  0  0
    2.4271   -3.6073    0.0000 C   0  0  0  0  0  0  0  0  0  0  0  0
    1.2135   -2.7256    0.0000 C   0  0  0  0  0  0  0  0  0  0  0  0
    2.4271   -1.8439    0.0000 C   0  0  0  0  0  0  0  0  0  0  0  0
    0.7500   -1.2990    0.0000 C   0  0  0  0  0  0  0  0  0  0  0  0
    1.5000    0.0000    0.0000 C   0  0  0  0  0  0  0  0  0  0  0  0
    0.7500    1.2990    0.0000 C   0  0  0  0  0  0  0  0  0  0  0  0
    1.5000    2.5981    0.0000 O   0  0  0  0  0  0  0  0  0  0  0  0
    3.0000    2.5981    0.0000 C   0  0  0  0  0  0  0  0  0  0  0  0
    3.7500    1.2990    0.0000 O   0  0  0  0  0  0  0  0  0  0  0  0
    3.7500    3.8971    0.0000 N   0  0  0  0  0  0  0  0  0  0  0  0
    5.2500    3.8971    0.0000 C   0  0  0  0  0  0  0  0  0  0  0  0
    6.0000    2.5981    0.0000 C   0  0  0  0  0  0  0  0  0  0  0  0
    7.5000    2.5981    0.0000 C   0  0  0  0  0  0  0  0  0  0  0  0
    8.2500    3.8971    0.0000 C   0  0  0  0  0  0  0  0  0  0  0  0
    7.5000    5.1962    0.0000 C   0  0  0  0  0  0  0  0  0  0  0  0
    6.0000    5.1962    0.0000 C   0  0  0  0  0  0  0  0  0  0  0  0
   -0.7500    1.2990    0.0000 C   0  0  0  0  0  0  0  0  0  0  0  0
   -1.5000    0.0000    0.0000 C   0  0  0  0  0  0  0  0  0  0  0  0
   -0.7500   -1.2990    0.0000 C   0  0  0  0  0  0  0  0  0  0  0  0
   -1.2135   -2.7256    0.0000 N   0  0  0  0  0  0  0  0  0  0  0  0
   -2.6401   -3.1891    0.0000 C   0  0  0  0  0  0  0  0  0  0  0  0
    0.0000   -3.6073    0.0000 C   0  0  0  0  0  0  0  0  0  0  0  0
  1  2  1  0
  2  3  1  0
  3  4  1  0
  4  5  1  0
  5  6  1  6
  5  7  1  0
  7  8  2  0
  8  9  1  0
  9 10  1  0
 10 11  1  0
 11 12  2  0
 11 13  1  0
 13 14  1  0
 14 15  2  0
 15 16  1  0
 16 17  2  0
 17 18  1  0
 18 19  2  0
  9 20  2  0
 20 21  1  0
 21 22  2  0
 22 23  1  0
 23 24  1  0
 25 23  1  1
 25  2  1  0
 25  5  1  0
 22  7  1  0
 19 14  1  0
M  END
>  <Synonyms>  (102) 
PHENSERINE, (+)-|POSIPHEN

>  <Research Codes>  (102) 
nan

>  <Phase>  (102) 
1

>  <Applicants>  (102) 
nan

>  <USAN Stem>  (102) 
nan

>  <USAN Year>  (102) 
nan

>  <USAN Stem Definition>  (102) 
nan

>  <USAN Stem Substem>  (102) 
nan

>  <First Approval>  (102) 
nan

>  <ATC Codes>  (102) 
nan

>  <Level 4 ATC Codes>  (102) 
nan

>  <Level 3 ATC Codes>  (102) 
nan

>  <Level 2 ATC Codes>  (102) 
nan

>  <Level 1 ATC Codes>  (102) 
nan

>  <Indication Class>  (102) 
nan

>  <Patent>  (102) 
nan

>  <Drug Type>  (102) 
1:Synthetic Small Molecule

>  <Passes Rule of Five>  (102) 
True

>  <First In Class>  (102) 
False

>  <Chirality>  (102) 
Unknown

>  <Prodrug>  (102) 
False

>  <Oral>  (102) 
False

>  <Parenteral>  (102) 
False

>  <Topical>  (102) 
False

>  <Black Box>  (102) 
False

>  <Availability Type>  (102) 
Unknown

>  <Withdrawn Year>  (102) 
nan

>  <Withdrawn Reason>  (102) 
nan

>  <Withdrawn Country>  (102) 
nan

>  <Withdrawn Class>  (102) 
nan

>  <SMILES>  (102) 
CN1CC[C@]2(C)c3cc(OC(=O)Nc4ccccc4)ccc3N(C)[C@H]12

>  <InChi Key>  (102) 
PBHFNBQPZCRWQP-AZUAARDMSA-N

$$$$
CHEMBL4297461
     RDKit          2D

 31 36  0  0  0  0  0  0  0  0999 V2000
   -2.6432    7.9091    0.0000 C   0  0  0  0  0  0  0  0  0  0  0  0
   -2.3313    6.4418    0.0000 O   0  0  0  0  0  0  0  0  0  0  0  0
   -3.4460    5.4381    0.0000 C   0  0  0  0  0  0  0  0  0  0  0  0
   -4.8726    5.9017    0.0000 C   0  0  0  0  0  0  0  0  0  0  0  0
   -5.9873    4.8980    0.0000 C   0  0  0  0  0  0  0  0  0  0  0  0
   -5.6755    3.4307    0.0000 C   0  0  0  0  0  0  0  0  0  0  0  0
   -4.2489    2.9672    0.0000 C   0  0  0  0  0  0  0  0  0  0  0  0
   -3.6388    1.5969    0.0000 N   0  0  0  0  0  0  0  0  0  0  0  0
   -2.1470    1.7537    0.0000 C   0  0  0  0  0  0  0  0  0  0  0  0
   -1.0323    0.7500    0.0000 C   0  0  0  0  0  0  0  0  0  0  0  0
    0.3943    1.2135    0.0000 C   0  0  0  0  0  0  0  0  0  0  0  0
    0.7062    2.6807    0.0000 C   0  0  0  0  0  0  0  0  0  0  0  0
   -0.4086    3.6844    0.0000 C   0  0  0  0  0  0  0  0  0  0  0  0
   -1.8351    3.2209    0.0000 C   0  0  0  0  0  0  0  0  0  0  0  0
   -3.1342    3.9709    0.0000 C   0  0  0  0  0  0  0  0  0  0  0  0
    0.2016    5.0548    0.0000 C   0  0  0  0  0  0  0  0  0  0  0  0
   -0.5484    6.3538    0.0000 O   0  0  0  0  0  0  0  0  0  0  0  0
    1.6933    4.8980    0.0000 N   0  0  0  0  0  0  0  0  0  0  0  0
    2.6970    6.0127    0.0000 C   0  0  0  0  0  0  0  0  0  0  0  0
    4.1643    5.7008    0.0000 N   0  0  0  0  0  0  0  0  0  0  0  0
    4.6278    4.2742    0.0000 C   0  0  0  0  0  0  0  0  0  0  0  0
    6.0950    3.9624    0.0000 C   0  0  0  0  0  0  0  0  0  0  0  0
    7.0987    5.0771    0.0000 N   0  0  0  0  0  0  0  0  0  0  0  0
    8.5659    4.7652    0.0000 C   0  0  0  0  0  0  0  0  0  0  0  0
    6.6352    6.5037    0.0000 C   0  0  0  0  0  0  0  0  0  0  0  0
    5.1679    6.8155    0.0000 C   0  0  0  0  0  0  0  0  0  0  0  0
    2.0052    3.4307    0.0000 C   0  0  0  0  0  0  0  0  0  0  0  0
    3.3755    2.8206    0.0000 O   0  0  0  0  0  0  0  0  0  0  0  0
    1.2760    0.0000    0.0000 C   0  0  0  0  0  0  0  0  0  0  0  0
    0.3943   -1.2135    0.0000 C   0  0  0  0  0  0  0  0  0  0  0  0
   -1.0323   -0.7500    0.0000 C   0  0  0  0  0  0  0  0  0  0  0  0
  1  2  1  0
  2  3  1  0
  3  4  1  0
  4  5  1  0
  5  6  1  0
  6  7  1  0
  7  8  2  0
  8  9  1  0
  9 10  2  0
 10 11  1  0
 11 12  1  0
 12 13  2  0
 13 14  1  0
 14 15  2  0
 13 16  1  0
 16 17  2  0
 16 18  1  0
 18 19  1  0
 19 20  1  0
 20 21  1  0
 21 22  1  0
 22 23  1  0
 23 24  1  0
 23 25  1  0
 25 26  1  0
 18 27  1  0
 27 28  2  0
 11 29  2  0
 29 30  1  0
 30 31  2  0
 15  3  1  0
 26 20  1  0
 15  7  1  0
 14  9  1  0
 31 10  1  0
 27 12  1  0
M  END
>  <Synonyms>  (103) 
CEP 9722|CEP-9722

>  <Research Codes>  (103) 
CEP-9722

>  <Phase>  (103) 
1

>  <Applicants>  (103) 
nan

>  <USAN Stem>  (103) 
nan

>  <USAN Year>  (103) 
nan

>  <USAN Stem Definition>  (103) 
nan

>  <USAN Stem Substem>  (103) 
nan

>  <First Approval>  (103) 
nan

>  <ATC Codes>  (103) 
nan

>  <Level 4 ATC Codes>  (103) 
nan

>  <Level 3 ATC Codes>  (103) 
nan

>  <Level 2 ATC Codes>  (103) 
nan

>  <Level 1 ATC Codes>  (103) 
nan

>  <Indication Class>  (103) 
nan

>  <Patent>  (103) 
nan

>  <Drug Type>  (103) 
1:Synthetic Small Molecule

>  <Passes Rule of Five>  (103) 
True

>  <First In Class>  (103) 
False

>  <Chirality>  (103) 
Achiral Molecule

>  <Prodrug>  (103) 
False

>  <Oral>  (103) 
False

>  <Parenteral>  (103) 
False

>  <Topical>  (103) 
False

>  <Black Box>  (103) 
False

>  <Availability Type>  (103) 
Unknown

>  <Withdrawn Year>  (103) 
nan

>  <Withdrawn Reason>  (103) 
nan

>  <Withdrawn Country>  (103) 
nan

>  <Withdrawn Class>  (103) 
nan

>  <SMILES>  (103) 
COc1cccc2[nH]c3c4c(c5c(c3c12)C(=O)N(CN1CCN(C)CC1)C5=O)CCC4

>  <InChi Key>  (103) 
HXEDGQQJTVUAKS-UHFFFAOYSA-N

$$$$
CHEMBL1908351
     RDKit          2D

 26 29  0  0  0  0  0  0  0  0999 V2000
   -4.6511   -6.5036    0.0000 C   0  0  0  0  0  0  0  0  0  0  0  0
   -4.4943   -5.0118    0.0000 C   0  0  0  0  0  0  0  0  0  0  0  0
   -5.7079   -4.1302    0.0000 C   0  0  0  0  0  0  0  0  0  0  0  0
   -5.5511   -2.6384    0.0000 N   0  0  0  0  0  0  0  0  0  0  0  0
   -4.1807   -2.0283    0.0000 C   0  0  0  0  0  0  0  0  0  0  0  0
   -4.0240   -0.5365    0.0000 N   0  0  0  0  0  0  0  0  0  0  0  0
   -5.2375    0.3452    0.0000 C   0  0  0  0  0  0  0  0  0  0  0  0
   -5.0807    1.8370    0.0000 C   0  0  0  0  0  0  0  0  0  0  0  0
   -6.2942    2.7187    0.0000 C   0  0  0  0  0  0  0  0  0  0  0  0
   -6.1374    4.2104    0.0000 N   0  0  0  0  0  0  0  0  0  0  0  0
   -7.3509    5.0921    0.0000 C   0  0  0  0  0  0  0  0  0  0  0  0
   -4.7671    4.8205    0.0000 C   0  0  0  0  0  0  0  0  0  0  0  0
   -2.9672   -2.9099    0.0000 C   0  0  0  0  0  0  0  0  0  0  0  0
   -3.1240   -4.4017    0.0000 C   0  0  0  0  0  0  0  0  0  0  0  0
   -1.7537   -5.0118    0.0000 N   0  0  0  0  0  0  0  0  0  0  0  0
   -0.7500   -3.8971    0.0000 C   0  0  0  0  0  0  0  0  0  0  0  0
    0.7500   -3.8971    0.0000 C   0  0  0  0  0  0  0  0  0  0  0  0
    1.5000   -2.5981    0.0000 C   0  0  0  0  0  0  0  0  0  0  0  0
    0.7500   -1.2990    0.0000 C   0  0  0  0  0  0  0  0  0  0  0  0
    1.5000    0.0000    0.0000 C   0  0  0  0  0  0  0  0  0  0  0  0
    0.7500    1.2990    0.0000 C   0  0  0  0  0  0  0  0  0  0  0  0
    1.5000    2.5981    0.0000 O   0  0  0  0  0  0  0  0  0  0  0  0
   -0.7500    1.2990    0.0000 C   0  0  0  0  0  0  0  0  0  0  0  0
   -1.5000    0.0000    0.0000 C   0  0  0  0  0  0  0  0  0  0  0  0
   -0.7500   -1.2990    0.0000 C   0  0  0  0  0  0  0  0  0  0  0  0
   -1.5000   -2.5981    0.0000 C   0  0  0  0  0  0  0  0  0  0  0  0
  1  2  1  0
  2  3  2  0
  3  4  1  0
  4  5  1  0
  5  6  2  3
  6  7  1  0
  7  8  1  0
  8  9  1  0
  9 10  1  0
 10 11  1  0
 10 12  1  0
  5 13  1  0
 13 14  2  0
 14 15  1  0
 15 16  1  0
 16 17  2  0
 17 18  1  0
 18 19  2  0
 19 20  1  0
 20 21  2  0
 21 22  1  0
 21 23  1  0
 23 24  2  0
 24 25  1  0
 25 26  2  0
 14  2  1  0
 26 16  1  0
 26 13  1  0
 25 19  1  0
M  END
>  <Synonyms>  (104) 
INTOPLICINE|RP 60475|RP-60475 FREE BASE

>  <Research Codes>  (104) 
RP-60475|RP-60475 FREE BASE

>  <Phase>  (104) 
1

>  <Applicants>  (104) 
nan

>  <USAN Stem>  (104) 
nan

>  <USAN Year>  (104) 
nan

>  <USAN Stem Definition>  (104) 
nan

>  <USAN Stem Substem>  (104) 
nan

>  <First Approval>  (104) 
nan

>  <ATC Codes>  (104) 
nan

>  <Level 4 ATC Codes>  (104) 
nan

>  <Level 3 ATC Codes>  (104) 
nan

>  <Level 2 ATC Codes>  (104) 
nan

>  <Level 1 ATC Codes>  (104) 
nan

>  <Indication Class>  (104) 
nan

>  <Patent>  (104) 
nan

>  <Drug Type>  (104) 
1:Synthetic Small Molecule

>  <Passes Rule of Five>  (104) 
True

>  <First In Class>  (104) 
False

>  <Chirality>  (104) 
Achiral Molecule

>  <Prodrug>  (104) 
False

>  <Oral>  (104) 
False

>  <Parenteral>  (104) 
False

>  <Topical>  (104) 
False

>  <Black Box>  (104) 
False

>  <Availability Type>  (104) 
Unknown

>  <Withdrawn Year>  (104) 
nan

>  <Withdrawn Reason>  (104) 
nan

>  <Withdrawn Country>  (104) 
nan

>  <Withdrawn Class>  (104) 
nan

>  <SMILES>  (104) 
Cc1cnc(NCCCN(C)C)c2c1[nH]c1ccc3cc(O)ccc3c12

>  <InChi Key>  (104) 
QROONAIPJKQFMC-UHFFFAOYSA-N

$$$$
CHEMBL4297478
     RDKit          2D

 39 43  0  0  0  0  0  0  0  0999 V2000
   -4.6904   -6.5871    0.0000 C   0  0  0  0  0  0  0  0  0  0  0  0
   -5.8051   -5.5834    0.0000 C   0  0  0  0  0  0  0  0  0  0  0  0
   -7.2317   -6.0469    0.0000 C   0  0  0  0  0  0  0  0  0  0  0  0
   -8.3464   -5.0433    0.0000 C   0  0  0  0  0  0  0  0  0  0  0  0
   -8.0346   -3.5760    0.0000 C   0  0  0  0  0  0  0  0  0  0  0  0
   -9.1493   -2.5723    0.0000 C   0  0  0  0  0  0  0  0  0  0  0  0
  -10.5759   -3.0359    0.0000 O   0  0  0  0  0  0  0  0  0  0  0  0
   -8.8374   -1.1051    0.0000 N   0  0  0  0  0  0  0  0  0  0  0  0
   -9.9521   -0.1014    0.0000 C   0  0  0  0  0  0  0  0  0  0  0  0
   -9.6403    1.3658    0.0000 C   0  0  0  0  0  0  0  0  0  0  0  0
  -10.7550    2.3695    0.0000 C   0  0  0  0  0  0  0  0  0  0  0  0
  -12.1816    1.9060    0.0000 C   0  0  0  0  0  0  0  0  0  0  0  0
  -13.2963    2.9097    0.0000 C   0  0  0  0  0  0  0  0  0  0  0  0
  -12.9844    4.3769    0.0000 N   0  0  0  0  0  0  0  0  0  0  0  0
  -11.5578    4.8404    0.0000 C   0  0  0  0  0  0  0  0  0  0  0  0
  -11.2460    6.3076    0.0000 C   0  0  0  0  0  0  0  0  0  0  0  0
  -12.3607    7.3113    0.0000 N   0  0  0  0  0  0  0  0  0  0  0  0
  -12.0488    8.7786    0.0000 C   0  0  0  0  0  0  0  0  0  0  0  0
  -13.7873    6.8478    0.0000 C   0  0  0  0  0  0  0  0  0  0  0  0
  -14.0992    5.3806    0.0000 C   0  0  0  0  0  0  0  0  0  0  0  0
  -12.4935    0.4388    0.0000 C   0  0  0  0  0  0  0  0  0  0  0  0
  -13.9200   -0.0248    0.0000 C   0  0  0  0  0  0  0  0  0  0  0  0
  -15.3466   -0.4883    0.0000 F   0  0  0  0  0  0  0  0  0  0  0  0
  -13.4565   -1.4514    0.0000 F   0  0  0  0  0  0  0  0  0  0  0  0
  -14.3836    1.4018    0.0000 F   0  0  0  0  0  0  0  0  0  0  0  0
  -11.3787   -0.5649    0.0000 C   0  0  0  0  0  0  0  0  0  0  0  0
   -6.6080   -3.1125    0.0000 C   0  0  0  0  0  0  0  0  0  0  0  0
   -5.4933   -4.1162    0.0000 C   0  0  0  0  0  0  0  0  0  0  0  0
   -4.0667   -3.6527    0.0000 C   0  0  0  0  0  0  0  0  0  0  0  0
   -2.6401   -3.1891    0.0000 C   0  0  0  0  0  0  0  0  0  0  0  0
   -1.2135   -2.7256    0.0000 C   0  0  0  0  0  0  0  0  0  0  0  0
   -0.0000   -3.6073    0.0000 N   0  0  0  0  0  0  0  0  0  0  0  0
    1.2135   -2.7256    0.0000 N   0  0  0  0  0  0  0  0  0  0  0  0
    0.7500   -1.2990    0.0000 C   0  0  0  0  0  0  0  0  0  0  0  0
    1.5000    0.0000    0.0000 C   0  0  0  0  0  0  0  0  0  0  0  0
    0.7500    1.2990    0.0000 C   0  0  0  0  0  0  0  0  0  0  0  0
   -0.7500    1.2990    0.0000 C   0  0  0  0  0  0  0  0  0  0  0  0
   -1.5000    0.0000    0.0000 C   0  0  0  0  0  0  0  0  0  0  0  0
   -0.7500   -1.2990    0.0000 N   0  0  0  0  0  0  0  0  0  0  0  0
  1  2  1  0
  2  3  2  0
  3  4  1  0
  4  5  2  0
  5  6  1  0
  6  7  2  0
  6  8  1  0
  8  9  1  0
  9 10  2  0
 10 11  1  0
 11 12  2  0
 12 13  1  0
 13 14  1  0
 14 15  1  0
 15 16  1  0
 16 17  1  0
 17 18  1  0
 17 19  1  0
 19 20  1  0
 12 21  1  0
 21 22  1  0
 22 23  1  0
 22 24  1  0
 22 25  1  0
 21 26  2  0
  5 27  1  0
 27 28  2  0
 28 29  1  0
 29 30  3  0
 30 31  1  0
 31 32  2  0
 32 33  1  0
 33 34  2  0
 34 35  1  0
 35 36  2  0
 36 37  1  0
 37 38  2  0
 38 39  1  0
 28  2  1  0
 39 31  1  0
 26  9  1  0
 39 34  1  0
 20 14  1  0
M  END
>  <Synonyms>  (105) 
PF-114

>  <Research Codes>  (105) 
PF-114

>  <Phase>  (105) 
1

>  <Applicants>  (105) 
nan

>  <USAN Stem>  (105) 
nan

>  <USAN Year>  (105) 
nan

>  <USAN Stem Definition>  (105) 
nan

>  <USAN Stem Substem>  (105) 
nan

>  <First Approval>  (105) 
nan

>  <ATC Codes>  (105) 
nan

>  <Level 4 ATC Codes>  (105) 
nan

>  <Level 3 ATC Codes>  (105) 
nan

>  <Level 2 ATC Codes>  (105) 
nan

>  <Level 1 ATC Codes>  (105) 
nan

>  <Indication Class>  (105) 
nan

>  <Patent>  (105) 
nan

>  <Drug Type>  (105) 
1:Synthetic Small Molecule

>  <Passes Rule of Five>  (105) 
False

>  <First In Class>  (105) 
False

>  <Chirality>  (105) 
Achiral Molecule

>  <Prodrug>  (105) 
False

>  <Oral>  (105) 
False

>  <Parenteral>  (105) 
False

>  <Topical>  (105) 
False

>  <Black Box>  (105) 
False

>  <Availability Type>  (105) 
Unknown

>  <Withdrawn Year>  (105) 
nan

>  <Withdrawn Reason>  (105) 
nan

>  <Withdrawn Country>  (105) 
nan

>  <Withdrawn Class>  (105) 
nan

>  <SMILES>  (105) 
Cc1ccc(C(=O)Nc2ccc(CN3CCN(C)CC3)c(C(F)(F)F)c2)cc1C#Cc1nnc2ccccn12

>  <InChi Key>  (105) 
SLIVDYMORZGPLW-UHFFFAOYSA-N

$$$$
CHEMBL4297642
     RDKit          2D

 39 42  0  0  0  0  0  0  0  0999 V2000
  -10.5000  -12.9904    0.0000 C   0  0  0  0  0  0  0  0  0  0  0  0
   -9.7500  -11.6913    0.0000 C   0  0  0  0  0  0  0  0  0  0  0  0
   -8.2500  -11.6913    0.0000 O   0  0  0  0  0  0  0  0  0  0  0  0
  -10.5000  -10.3923    0.0000 N   0  0  0  0  0  0  0  0  0  0  0  0
   -9.7500   -9.0933    0.0000 C   0  0  0  0  0  0  0  0  0  0  0  0
   -8.2500   -9.0933    0.0000 C   0  0  0  0  0  0  0  0  0  0  0  0
   -7.5000   -7.7942    0.0000 C   0  0  0  0  0  0  0  0  0  0  0  0
   -6.0000   -7.7942    0.0000 C   0  0  0  0  0  0  0  0  0  0  0  0
   -5.2500   -6.4952    0.0000 N   0  0  0  0  0  0  0  0  0  0  0  0
   -3.7500   -6.4952    0.0000 C   0  0  0  0  0  0  0  0  0  0  0  0
   -3.0000   -5.1962    0.0000 C   0  0  0  0  0  0  0  0  0  0  0  0
   -1.5000   -5.1962    0.0000 C   0  0  0  0  0  0  0  0  0  0  0  0
   -0.7500   -3.8971    0.0000 N   0  0  0  0  0  0  0  0  0  0  0  0
    0.7500   -3.8971    0.0000 C   0  0  0  0  0  0  0  0  0  0  0  0
    1.5000   -5.1962    0.0000 O   0  0  0  0  0  0  0  0  0  0  0  0
    1.5000   -2.5981    0.0000 N   0  0  0  0  0  0  0  0  0  0  0  0
    0.7500   -1.2990    0.0000 C   0  0  0  0  0  0  0  0  0  0  0  0
    1.5000    0.0000    0.0000 C   0  0  0  0  0  0  0  0  0  0  0  0
    0.7500    1.2990    0.0000 C   0  0  0  0  0  0  0  0  0  0  0  0
   -0.7500    1.2990    0.0000 C   0  0  0  0  0  0  0  0  0  0  0  0
   -1.5000    0.0000    0.0000 C   0  0  0  0  0  0  0  0  0  0  0  0
   -0.7500   -1.2990    0.0000 C   0  0  0  0  0  0  0  0  0  0  0  0
   -1.5000   -2.5981    0.0000 C   0  0  0  0  0  0  0  0  0  0  0  0
   -3.0000   -2.5981    0.0000 O   0  0  0  0  0  0  0  0  0  0  0  0
  -12.0000  -10.3923    0.0000 C   0  0  0  0  0  0  0  0  0  0  0  0
  -12.7500  -11.6913    0.0000 C   0  0  0  0  0  0  0  0  0  0  0  0
  -14.2500  -11.6913    0.0000 C   0  0  0  0  0  0  0  0  0  0  0  0
  -15.0000  -12.9904    0.0000 N   0  0  0  0  0  0  0  0  0  0  0  0
  -14.2500  -14.2894    0.0000 C   0  0  0  0  0  0  0  0  0  0  0  0
  -12.7500  -14.2894    0.0000 O   0  0  0  0  0  0  0  0  0  0  0  0
  -15.0000  -15.5885    0.0000 N   0  0  0  0  0  0  0  0  0  0  0  0
  -16.5000  -15.5885    0.0000 C   0  0  0  0  0  0  0  0  0  0  0  0
  -17.2500  -16.8875    0.0000 C   0  0  0  0  0  0  0  0  0  0  0  0
  -18.7500  -16.8875    0.0000 C   0  0  0  0  0  0  0  0  0  0  0  0
  -19.5000  -15.5885    0.0000 C   0  0  0  0  0  0  0  0  0  0  0  0
  -18.7500  -14.2894    0.0000 C   0  0  0  0  0  0  0  0  0  0  0  0
  -17.2500  -14.2894    0.0000 C   0  0  0  0  0  0  0  0  0  0  0  0
  -16.5000  -12.9904    0.0000 C   0  0  0  0  0  0  0  0  0  0  0  0
  -17.2500  -11.6913    0.0000 O   0  0  0  0  0  0  0  0  0  0  0  0
  1  2  1  0
  2  3  2  0
  2  4  1  0
  4  5  1  0
  5  6  1  0
  6  7  1  0
  7  8  1  0
  8  9  1  0
  9 10  1  0
 10 11  1  0
 11 12  1  0
 12 13  1  0
 13 14  1  0
 14 15  2  0
 14 16  1  0
 16 17  1  0
 17 18  2  0
 18 19  1  0
 19 20  2  0
 20 21  1  0
 21 22  2  0
 22 23  1  0
 23 24  2  0
  4 25  1  0
 25 26  1  0
 26 27  1  0
 27 28  1  0
 28 29  1  0
 29 30  2  0
 29 31  1  0
 31 32  1  0
 32 33  2  0
 33 34  1  0
 34 35  2  0
 35 36  1  0
 36 37  2  0
 37 38  1  0
 38 39  2  0
 23 13  1  0
 38 28  1  0
 22 17  1  0
 37 32  1  0
M  END
>  <Synonyms>  (106) 
J3.046.690J|OTAPLIMASTAT|SP-8203

>  <Research Codes>  (106) 
J3.046.690J

>  <Phase>  (106) 
1

>  <Applicants>  (106) 
nan

>  <USAN Stem>  (106) 
'-stat'

>  <USAN Year>  (106) 
nan

>  <USAN Stem Definition>  (106) 
enzyme inhibitors: matrix metalloprotease inhibitors

>  <USAN Stem Substem>  (106) 
'-stat(-stat (-mastat))'

>  <First Approval>  (106) 
nan

>  <ATC Codes>  (106) 
nan

>  <Level 4 ATC Codes>  (106) 
nan

>  <Level 3 ATC Codes>  (106) 
nan

>  <Level 2 ATC Codes>  (106) 
nan

>  <Level 1 ATC Codes>  (106) 
nan

>  <Indication Class>  (106) 
nan

>  <Patent>  (106) 
nan

>  <Drug Type>  (106) 
1:Synthetic Small Molecule

>  <Passes Rule of Five>  (106) 
False

>  <First In Class>  (106) 
False

>  <Chirality>  (106) 
Achiral Molecule

>  <Prodrug>  (106) 
False

>  <Oral>  (106) 
False

>  <Parenteral>  (106) 
False

>  <Topical>  (106) 
False

>  <Black Box>  (106) 
False

>  <Availability Type>  (106) 
Unknown

>  <Withdrawn Year>  (106) 
nan

>  <Withdrawn Reason>  (106) 
nan

>  <Withdrawn Country>  (106) 
nan

>  <Withdrawn Class>  (106) 
nan

>  <SMILES>  (106) 
CC(=O)N(CCCCNCCCn1c(=O)[nH]c2ccccc2c1=O)CCCn1c(=O)[nH]c2ccccc2c1=O

>  <InChi Key>  (106) 
SJZBPVOSFYUHFV-UHFFFAOYSA-N

$$$$
CHEMBL4300945
     RDKit          2D

 30 33  0  0  0  0  0  0  0  0999 V2000
   -1.2990  -11.8573    0.0000 C   0  0  0  0  0  0  0  0  0  0  0  0
   -1.2990  -10.3573    0.0000 C   0  0  0  0  0  0  0  0  0  0  0  0
   -2.5981   -9.6073    0.0000 C   0  0  0  0  0  0  0  0  0  0  0  0
   -2.5981   -8.1073    0.0000 N   0  0  0  0  0  0  0  0  0  0  0  0
   -1.2990   -7.3573    0.0000 C   0  0  0  0  0  0  0  0  0  0  0  0
   -1.2990   -5.8573    0.0000 C   0  0  0  0  0  0  0  0  0  0  0  0
    0.0000   -5.1073    0.0000 S   0  0  0  0  0  3  0  0  0  0  0  0
    1.2990   -5.8573    0.0000 O   0  0  0  0  0  1  0  0  0  0  0  0
    0.0000   -3.6073    0.0000 C   0  0  0  0  0  0  0  0  0  0  0  0
    1.2135   -2.7256    0.0000 N   0  0  0  0  0  0  0  0  0  0  0  0
    0.7500   -1.2990    0.0000 C   0  0  0  0  0  0  0  0  0  0  0  0
    1.5000    0.0000    0.0000 C   0  0  0  0  0  0  0  0  0  0  0  0
    0.7500    1.2990    0.0000 C   0  0  0  0  0  0  0  0  0  0  0  0
   -0.7500    1.2990    0.0000 C   0  0  0  0  0  0  0  0  0  0  0  0
   -1.5000    0.0000    0.0000 C   0  0  0  0  0  0  0  0  0  0  0  0
   -0.7500   -1.2990    0.0000 C   0  0  0  0  0  0  0  0  0  0  0  0
   -1.2135   -2.7256    0.0000 N   0  0  0  0  0  0  0  0  0  0  0  0
    0.0000   -8.1073    0.0000 C   0  0  0  0  0  0  0  0  0  0  0  0
    1.2990   -7.3573    0.0000 C   0  0  0  0  0  0  0  0  0  0  0  0
    0.0000   -9.6073    0.0000 C   0  0  0  0  0  0  0  0  0  0  0  0
    1.2990  -10.3573    0.0000 O   0  0  0  0  0  0  0  0  0  0  0  0
    1.2990  -11.8573    0.0000 C   0  0  0  0  0  0  0  0  0  0  0  0
    2.5981  -12.6073    0.0000 C   0  0  0  0  0  0  0  0  0  0  0  0
    2.5981  -14.1073    0.0000 C   0  0  0  0  0  0  0  0  0  0  0  0
    3.8971  -14.8573    0.0000 O   0  0  0  0  0  0  0  0  0  0  0  0
    5.1962  -14.1073    0.0000 C   0  0  0  0  0  0  0  0  0  0  0  0
    6.6734  -13.8468    0.0000 C   0  0  0  0  0  0  0  0  0  0  0  0
    5.7092  -15.5168    0.0000 C   0  0  0  0  0  0  0  0  0  0  0  0
    5.1962  -12.6073    0.0000 O   0  0  0  0  0  0  0  0  0  0  0  0
    3.8971  -11.8573    0.0000 C   0  0  0  0  0  0  0  0  0  0  0  0
  1  2  1  0
  2  3  2  0
  3  4  1  0
  4  5  2  0
  5  6  1  0
  6  7  1  0
  7  8  1  6
  7  9  1  0
  9 10  2  0
 10 11  1  0
 11 12  2  0
 12 13  1  0
 13 14  2  0
 14 15  1  0
 15 16  2  0
 16 17  1  0
  5 18  1  0
 18 19  1  0
 18 20  2  0
 20 21  1  0
 21 22  1  0
 22 23  1  0
 23 24  1  0
 24 25  1  0
 25 26  1  0
 26 27  1  0
 26 28  1  0
 26 29  1  0
 29 30  1  0
 20  2  1  0
 30 23  1  0
 17  9  1  0
 16 11  1  0
M  CHG  2   7   1   8  -1
M  END
>  <Synonyms>  (107) 
nan

>  <Research Codes>  (107) 
nan

>  <Phase>  (107) 
1

>  <Applicants>  (107) 
nan

>  <USAN Stem>  (107) 
'-prazole'

>  <USAN Year>  (107) 
nan

>  <USAN Stem Definition>  (107) 
antiulcer agents (benzimidazole derivatives)

>  <USAN Stem Substem>  (107) 
'-prazole(-prazole)'

>  <First Approval>  (107) 
nan

>  <ATC Codes>  (107) 
nan

>  <Level 4 ATC Codes>  (107) 
nan

>  <Level 3 ATC Codes>  (107) 
nan

>  <Level 2 ATC Codes>  (107) 
nan

>  <Level 1 ATC Codes>  (107) 
nan

>  <Indication Class>  (107) 
nan

>  <Patent>  (107) 
nan

>  <Drug Type>  (107) 
1:Synthetic Small Molecule

>  <Passes Rule of Five>  (107) 
True

>  <First In Class>  (107) 
False

>  <Chirality>  (107) 
Single Stereoisomer

>  <Prodrug>  (107) 
False

>  <Oral>  (107) 
False

>  <Parenteral>  (107) 
False

>  <Topical>  (107) 
False

>  <Black Box>  (107) 
False

>  <Availability Type>  (107) 
Unknown

>  <Withdrawn Year>  (107) 
nan

>  <Withdrawn Reason>  (107) 
nan

>  <Withdrawn Country>  (107) 
nan

>  <Withdrawn Class>  (107) 
nan

>  <SMILES>  (107) 
Cc1cnc(C[S@@+]([O-])c2nc3ccccc3[nH]2)c(C)c1OCC1COC(C)(C)OC1

>  <InChi Key>  (107) 
DWDKHTXMLSZGDL-SSEXGKCCSA-N

$$$$
CHEMBL4297252
     RDKit          2D

 33 34  0  0  0  0  0  0  0  0999 V2000
    3.0000    0.0000    0.0000 C   0  0  0  0  0  0  0  0  0  0  0  0
    1.5000    0.0000    0.0000 C   0  0  0  0  0  0  0  0  0  0  0  0
    0.7500   -1.2990    0.0000 O   0  0  0  0  0  0  0  0  0  0  0  0
   -0.7500   -1.2990    0.0000 C   0  0  0  0  0  0  0  0  0  0  0  0
   -1.5000   -2.5981    0.0000 O   0  0  0  0  0  0  0  0  0  0  0  0
   -0.7500   -3.8971    0.0000 C   0  0  0  0  0  0  0  0  0  0  0  0
   -1.5000   -5.1962    0.0000 C   0  0  0  0  0  0  0  0  0  0  0  0
   -3.0000   -5.1962    0.0000 O   0  0  0  0  0  0  0  0  0  0  0  0
   -3.7500   -6.4952    0.0000 C   0  0  0  0  0  0  0  0  0  0  0  0
   -5.2500   -6.4952    0.0000 C   0  0  0  0  0  0  0  0  0  0  0  0
   -6.0000   -5.1962    0.0000 O   0  0  0  0  0  0  0  0  0  0  0  0
   -6.0000   -7.7942    0.0000 C   0  0  0  0  0  0  0  0  0  0  0  0
   -7.5000   -7.7942    0.0000 O   0  0  0  0  0  0  0  0  0  0  0  0
   -3.0000   -7.7942    0.0000 C   0  0  0  0  0  0  0  0  0  0  0  0
   -1.5000   -7.7942    0.0000 O   0  0  0  0  0  0  0  0  0  0  0  0
   -3.7500   -9.0933    0.0000 C   0  0  0  0  0  0  0  0  0  0  0  0
   -5.2500   -9.0933    0.0000 O   0  0  0  0  0  0  0  0  0  0  0  0
   -3.0000  -10.3923    0.0000 C   0  0  0  0  0  0  0  0  0  0  0  0
   -3.7500  -11.6913    0.0000 O   0  0  0  0  0  0  0  0  0  0  0  0
   -0.7500   -6.4952    0.0000 O   0  0  0  0  0  0  0  0  0  0  0  0
    0.7500   -6.4952    0.0000 C   0  0  0  0  0  0  0  0  0  0  0  0
    1.5000   -7.7942    0.0000 C   0  0  0  0  0  0  0  0  0  0  0  0
    0.7500   -9.0933    0.0000 O   0  0  0  0  0  0  0  0  0  0  0  0
    1.5000   -5.1962    0.0000 C   0  0  0  0  0  0  0  0  0  0  0  0
    3.0000   -5.1962    0.0000 O   0  0  0  0  0  0  0  0  0  0  0  0
    0.7500   -3.8971    0.0000 C   0  0  0  0  0  0  0  0  0  0  0  0
    1.5000   -2.5981    0.0000 O   0  0  0  0  0  0  0  0  0  0  0  0
   -1.5000    0.0000    0.0000 C   0  0  0  0  0  0  0  0  0  0  0  0
   -3.0000    0.0000    0.0000 O   0  0  0  0  0  0  0  0  0  0  0  0
   -0.7500    1.2990    0.0000 C   0  0  0  0  0  0  0  0  0  0  0  0
   -1.5000    2.5981    0.0000 O   0  0  0  0  0  0  0  0  0  0  0  0
    0.7500    1.2990    0.0000 C   0  0  0  0  0  0  0  0  0  0  0  0
    1.5000    2.5981    0.0000 O   0  0  0  0  0  0  0  0  0  0  0  0
  2  1  1  6
  2  3  1  0
  3  4  1  0
  4  5  1  1
  6  5  1  6
  6  7  1  0
  7  8  1  1
  8  9  1  0
  9 10  1  0
 10 11  1  1
 10 12  1  0
 12 13  1  0
  9 14  1  0
 14 15  2  0
 14 16  1  0
 16 17  1  0
 16 18  1  0
 18 19  1  0
  7 20  1  0
 20 21  1  0
 21 22  1  1
 22 23  1  0
 21 24  1  0
 24 25  1  1
 24 26  1  0
 26 27  1  1
  4 28  1  0
 28 29  1  1
 28 30  1  0
 30 31  1  6
 30 32  1  0
 32 33  1  6
 32  2  1  0
 26  6  1  0
M  END
>  <Synonyms>  (108) 
2'-FUCOSYLLACTOSE

>  <Research Codes>  (108) 
nan

>  <Phase>  (108) 
1

>  <Applicants>  (108) 
nan

>  <USAN Stem>  (108) 
nan

>  <USAN Year>  (108) 
nan

>  <USAN Stem Definition>  (108) 
nan

>  <USAN Stem Substem>  (108) 
nan

>  <First Approval>  (108) 
nan

>  <ATC Codes>  (108) 
nan

>  <Level 4 ATC Codes>  (108) 
nan

>  <Level 3 ATC Codes>  (108) 
nan

>  <Level 2 ATC Codes>  (108) 
nan

>  <Level 1 ATC Codes>  (108) 
nan

>  <Indication Class>  (108) 
nan

>  <Patent>  (108) 
nan

>  <Drug Type>  (108) 
7:Natural Product-derived

>  <Passes Rule of Five>  (108) 
False

>  <First In Class>  (108) 
False

>  <Chirality>  (108) 
Single Stereoisomer

>  <Prodrug>  (108) 
False

>  <Oral>  (108) 
False

>  <Parenteral>  (108) 
False

>  <Topical>  (108) 
False

>  <Black Box>  (108) 
False

>  <Availability Type>  (108) 
Unknown

>  <Withdrawn Year>  (108) 
nan

>  <Withdrawn Reason>  (108) 
nan

>  <Withdrawn Country>  (108) 
nan

>  <Withdrawn Class>  (108) 
nan

>  <SMILES>  (108) 
C[C@@H]1O[C@@H](O[C@H]2[C@H](O[C@H]([C@H](O)CO)[C@H](O)[C@@H](O)C=O)O[C@H](CO)[C@H](O)[C@@H]2O)[C@@H](O)[C@H](O)[C@@H]1O

>  <InChi Key>  (108) 
GHBVDDPMLQTIRJ-OPKCRSJLSA-N

$$$$
CHEMBL4297286
     RDKit          2D

 34 36  0  0  0  0  0  0  0  0999 V2000
    3.0000    0.0000    0.0000 C   0  0  0  0  0  0  0  0  0  0  0  0
    1.5000    0.0000    0.0000 C   0  0  0  0  0  0  0  0  0  0  0  0
    0.7500   -1.2990    0.0000 C   0  0  0  0  0  0  0  0  0  0  0  0
   -0.7500   -1.2990    0.0000 N   0  0  0  0  0  0  0  0  0  0  0  0
   -1.5000   -2.5981    0.0000 C   0  0  0  0  0  0  0  0  0  0  0  0
   -3.0000   -2.5981    0.0000 C   0  0  0  0  0  0  0  0  0  0  0  0
   -3.7500   -3.8971    0.0000 C   0  0  0  0  0  0  0  0  0  0  0  0
   -3.0000   -5.1962    0.0000 C   0  0  0  0  0  0  0  0  0  0  0  0
   -3.7500   -6.4952    0.0000 F   0  0  0  0  0  0  0  0  0  0  0  0
   -1.5000   -5.1962    0.0000 C   0  0  0  0  0  0  0  0  0  0  0  0
   -0.7500   -3.8971    0.0000 C   0  0  0  0  0  0  0  0  0  0  0  0
    0.7500   -3.8971    0.0000 C   0  0  0  0  0  0  0  0  0  0  0  0
    2.2500   -3.8971    0.0000 F   0  0  0  0  0  0  0  0  0  0  0  0
    0.7500   -5.3971    0.0000 F   0  0  0  0  0  0  0  0  0  0  0  0
    0.7500   -2.3971    0.0000 F   0  0  0  0  0  0  0  0  0  0  0  0
   -1.5000    0.0000    0.0000 C   0  0  0  0  0  0  0  0  0  0  0  0
   -0.7500    1.2990    0.0000 C   0  0  0  0  0  0  0  0  0  0  0  0
    0.7500    1.2990    0.0000 N   0  0  0  0  0  0  0  0  0  0  0  0
    1.5000    2.5981    0.0000 S   0  0  0  0  0  0  0  0  0  0  0  0
    2.7990    1.8481    0.0000 O   0  0  0  0  0  0  0  0  0  0  0  0
    0.2010    3.3481    0.0000 O   0  0  0  0  0  0  0  0  0  0  0  0
    2.2500    3.8971    0.0000 C   0  0  0  0  0  0  0  0  0  0  0  0
    3.7500    3.8971    0.0000 C   0  0  0  0  0  0  0  0  0  0  0  0
    4.5000    5.1962    0.0000 C   0  0  0  0  0  0  0  0  0  0  0  0
    3.7500    6.4952    0.0000 C   0  0  0  0  0  0  0  0  0  0  0  0
    2.2500    6.4952    0.0000 C   0  0  0  0  0  0  0  0  0  0  0  0
    1.5000    7.7942    0.0000 C   0  0  0  0  0  0  0  0  0  0  0  0
    0.7500    9.0933    0.0000 C   0  0  0  0  0  0  0  0  0  0  0  0
    0.2010    7.0442    0.0000 O   0  0  0  0  0  0  0  0  0  0  0  0
    2.7990    8.5442    0.0000 C   0  0  0  0  0  0  0  0  0  0  0  0
    4.0981    9.2942    0.0000 F   0  0  0  0  0  0  0  0  0  0  0  0
    2.0490    9.8433    0.0000 F   0  0  0  0  0  0  0  0  0  0  0  0
    3.8411    7.4653    0.0000 F   0  0  0  0  0  0  0  0  0  0  0  0
    1.5000    5.1962    0.0000 C   0  0  0  0  0  0  0  0  0  0  0  0
  2  1  1  6
  2  3  1  0
  3  4  1  0
  4  5  1  0
  5  6  2  0
  6  7  1  0
  7  8  2  0
  8  9  1  0
  8 10  1  0
 10 11  2  0
 11 12  1  0
 12 13  1  0
 12 14  1  0
 12 15  1  0
  4 16  1  0
 16 17  1  0
 17 18  1  0
 18 19  1  0
 19 20  2  0
 19 21  2  0
 19 22  1  0
 22 23  2  0
 23 24  1  0
 24 25  2  0
 25 26  1  0
 26 27  1  0
 27 28  1  6
 27 29  1  0
 27 30  1  0
 30 31  1  0
 30 32  1  0
 30 33  1  0
 26 34  2  0
 18  2  1  0
 34 22  1  0
 11  5  1  0
M  END
>  <Synonyms>  (109) 
HSD-016

>  <Research Codes>  (109) 
nan

>  <Phase>  (109) 
1

>  <Applicants>  (109) 
nan

>  <USAN Stem>  (109) 
nan

>  <USAN Year>  (109) 
nan

>  <USAN Stem Definition>  (109) 
nan

>  <USAN Stem Substem>  (109) 
nan

>  <First Approval>  (109) 
nan

>  <ATC Codes>  (109) 
nan

>  <Level 4 ATC Codes>  (109) 
nan

>  <Level 3 ATC Codes>  (109) 
nan

>  <Level 2 ATC Codes>  (109) 
nan

>  <Level 1 ATC Codes>  (109) 
nan

>  <Indication Class>  (109) 
nan

>  <Patent>  (109) 
nan

>  <Drug Type>  (109) 
1:Synthetic Small Molecule

>  <Passes Rule of Five>  (109) 
False

>  <First In Class>  (109) 
False

>  <Chirality>  (109) 
Single Stereoisomer

>  <Prodrug>  (109) 
False

>  <Oral>  (109) 
False

>  <Parenteral>  (109) 
False

>  <Topical>  (109) 
False

>  <Black Box>  (109) 
False

>  <Availability Type>  (109) 
Unknown

>  <Withdrawn Year>  (109) 
nan

>  <Withdrawn Reason>  (109) 
nan

>  <Withdrawn Country>  (109) 
nan

>  <Withdrawn Class>  (109) 
nan

>  <SMILES>  (109) 
C[C@@H]1CN(c2ccc(F)cc2C(F)(F)F)CCN1S(=O)(=O)c1cccc([C@@](C)(O)C(F)(F)F)c1

>  <InChi Key>  (109) 
ZWASRJHIEFYJGL-BFUOFWGJSA-N

$$$$
CHEMBL4086143
     RDKit          2D

 17 19  0  0  0  0  0  0  0  0999 V2000
   -5.4853   -5.8293    0.0000 O   0  0  0  0  0  0  0  0  0  0  0  0
   -4.6036   -4.6157    0.0000 C   0  0  0  0  0  0  0  0  0  0  0  0
   -3.1036   -4.6157    0.0000 C   0  0  0  0  0  0  0  0  0  0  0  0
   -2.6401   -3.1891    0.0000 C   0  0  0  0  0  0  0  0  0  0  0  0
   -1.2135   -2.7256    0.0000 C   0  0  0  0  0  0  0  0  0  0  0  0
   -0.0000   -3.6073    0.0000 C   0  0  0  0  0  0  0  0  0  0  0  0
    1.2135   -2.7256    0.0000 N   0  0  0  0  0  0  0  0  0  0  0  0
    0.7500   -1.2990    0.0000 C   0  0  0  0  0  0  0  0  0  0  0  0
    1.5000    0.0000    0.0000 C   0  0  0  0  0  0  0  0  0  0  0  0
    0.7500    1.2990    0.0000 C   0  0  0  0  0  0  0  0  0  0  0  0
   -0.7500    1.2990    0.0000 C   0  0  0  0  0  0  0  0  0  0  0  0
   -1.5000    2.5981    0.0000 F   0  0  0  0  0  0  0  0  0  0  0  0
   -1.5000    0.0000    0.0000 C   0  0  0  0  0  0  0  0  0  0  0  0
   -0.7500   -1.2990    0.0000 C   0  0  0  0  0  0  0  0  0  0  0  0
   -3.8536   -2.3075    0.0000 C   0  0  0  0  0  0  0  0  0  0  0  0
   -3.8536   -0.8075    0.0000 O   0  0  0  0  0  0  0  0  0  0  0  0
   -5.0672   -3.1891    0.0000 N   0  0  0  0  0  0  0  0  0  0  0  0
  1  2  1  0
  2  3  2  0
  3  4  1  0
  4  5  1  0
  5  6  2  0
  6  7  1  0
  7  8  1  0
  8  9  2  0
  9 10  1  0
 10 11  2  0
 11 12  1  0
 11 13  1  0
 13 14  2  0
  4 15  2  0
 15 16  1  0
 15 17  1  0
 17  2  1  0
 14  5  1  0
 14  8  1  0
M  END
>  <Synonyms>  (110) 
PF-06840003

>  <Research Codes>  (110) 
PF-06840003

>  <Phase>  (110) 
1

>  <Applicants>  (110) 
nan

>  <USAN Stem>  (110) 
nan

>  <USAN Year>  (110) 
nan

>  <USAN Stem Definition>  (110) 
nan

>  <USAN Stem Substem>  (110) 
nan

>  <First Approval>  (110) 
nan

>  <ATC Codes>  (110) 
nan

>  <Level 4 ATC Codes>  (110) 
nan

>  <Level 3 ATC Codes>  (110) 
nan

>  <Level 2 ATC Codes>  (110) 
nan

>  <Level 1 ATC Codes>  (110) 
nan

>  <Indication Class>  (110) 
nan

>  <Patent>  (110) 
nan

>  <Drug Type>  (110) 
1:Synthetic Small Molecule

>  <Passes Rule of Five>  (110) 
True

>  <First In Class>  (110) 
False

>  <Chirality>  (110) 
Racemic Mixture

>  <Prodrug>  (110) 
False

>  <Oral>  (110) 
False

>  <Parenteral>  (110) 
False

>  <Topical>  (110) 
False

>  <Black Box>  (110) 
False

>  <Availability Type>  (110) 
Unknown

>  <Withdrawn Year>  (110) 
nan

>  <Withdrawn Reason>  (110) 
nan

>  <Withdrawn Country>  (110) 
nan

>  <Withdrawn Class>  (110) 
nan

>  <SMILES>  (110) 
O=C1CC(c2c[nH]c3ccc(F)cc23)C(=O)N1

>  <InChi Key>  (110) 
HUYXRGHLIDWZBX-UHFFFAOYSA-N

$$$$
CHEMBL271220
     RDKit          2D

 37 41  0  0  0  0  0  0  0  0999 V2000
   -5.2500    1.2990    0.0000 C   0  0  0  0  0  0  0  0  0  0  0  0
   -4.5000    0.0000    0.0000 C   0  0  0  0  0  0  0  0  0  0  0  0
   -3.0000    0.0000    0.0000 O   0  0  0  0  0  0  0  0  0  0  0  0
   -2.2500   -1.2990    0.0000 C   0  0  0  0  0  0  0  0  0  0  0  0
   -0.7500   -1.2990    0.0000 C   0  0  0  0  0  0  0  0  0  0  0  0
   -1.5000   -2.5981    0.0000 C   0  0  0  0  0  0  0  0  0  0  0  0
   -0.7500   -3.8971    0.0000 C   0  0  0  0  0  0  0  0  0  0  0  0
   -1.2135   -5.3237    0.0000 C   0  0  0  0  0  0  0  0  0  0  0  0
   -0.0000   -6.2054    0.0000 N   0  0  0  0  0  0  0  0  0  0  0  0
    1.2135   -5.3237    0.0000 N   0  0  0  0  0  0  0  0  0  0  0  0
    2.6401   -5.7872    0.0000 C   0  0  0  0  0  0  0  0  0  0  0  0
    2.9520   -7.2544    0.0000 C   0  0  0  0  0  0  0  0  0  0  0  0
    4.3786   -7.7180    0.0000 C   0  0  0  0  0  0  0  0  0  0  0  0
    5.4933   -6.7143    0.0000 C   0  0  0  0  0  0  0  0  0  0  0  0
    6.9199   -7.1778    0.0000 F   0  0  0  0  0  0  0  0  0  0  0  0
    5.1814   -5.2471    0.0000 C   0  0  0  0  0  0  0  0  0  0  0  0
    3.7548   -4.7835    0.0000 C   0  0  0  0  0  0  0  0  0  0  0  0
    0.7500   -3.8971    0.0000 C   0  0  0  0  0  0  0  0  0  0  0  0
    1.5000   -2.5981    0.0000 C   0  0  0  0  0  0  0  0  0  0  0  0
    0.7500   -1.2990    0.0000 C   0  0  0  0  0  0  0  0  0  0  0  0
    1.5000    0.0000    0.0000 C   0  0  0  0  0  0  0  0  0  0  0  0
    0.7500    1.2990    0.0000 C   0  0  0  0  0  0  0  0  0  0  0  0
   -0.7500    1.2990    0.0000 N   0  0  0  0  0  0  0  0  0  0  0  0
   -1.5000    2.5981    0.0000 S   0  0  0  0  0  0  0  0  0  0  0  0
   -2.7990    1.8481    0.0000 O   0  0  0  0  0  0  0  0  0  0  0  0
   -0.2010    3.3481    0.0000 O   0  0  0  0  0  0  0  0  0  0  0  0
   -2.2500    3.8971    0.0000 C   0  0  0  0  0  0  0  0  0  0  0  0
   -1.5000    5.1962    0.0000 C   0  0  0  0  0  0  0  0  0  0  0  0
   -2.2500    6.4952    0.0000 C   0  0  0  0  0  0  0  0  0  0  0  0
   -3.7500    6.4952    0.0000 C   0  0  0  0  0  0  0  0  0  0  0  0
   -4.5000    7.7942    0.0000 C   0  0  0  0  0  0  0  0  0  0  0  0
   -5.2500    9.0933    0.0000 F   0  0  0  0  0  0  0  0  0  0  0  0
   -3.2010    8.5442    0.0000 F   0  0  0  0  0  0  0  0  0  0  0  0
   -5.7990    7.0442    0.0000 F   0  0  0  0  0  0  0  0  0  0  0  0
   -4.5000    5.1962    0.0000 C   0  0  0  0  0  0  0  0  0  0  0  0
   -3.7500    3.8971    0.0000 C   0  0  0  0  0  0  0  0  0  0  0  0
   -1.5000    0.0000    0.0000 C   0  0  0  0  0  0  0  0  0  0  0  0
  1  2  1  0
  2  3  1  0
  3  4  1  0
  5  4  1  1
  5  6  1  0
  6  7  1  0
  7  8  1  0
  8  9  2  0
  9 10  1  0
 10 11  1  0
 11 12  2  0
 12 13  1  0
 13 14  2  0
 14 15  1  0
 14 16  1  0
 16 17  2  0
 10 18  1  0
 18 19  1  0
 19 20  2  0
 20 21  1  0
 21 22  1  0
 22 23  1  0
 23 24  1  0
 24 25  2  0
 24 26  2  0
 24 27  1  0
 27 28  2  0
 28 29  1  0
 29 30  2  0
 30 31  1  0
 31 32  1  0
 31 33  1  0
 31 34  1  0
 30 35  1  0
 35 36  2  0
 23 37  1  0
 20  5  1  0
 36 27  1  0
 37  5  1  0
 18  7  2  0
 17 11  1  0
M  END
>  <Synonyms>  (111) 
CORT 108297

>  <Research Codes>  (111) 
nan

>  <Phase>  (111) 
1

>  <Applicants>  (111) 
nan

>  <USAN Stem>  (111) 
nan

>  <USAN Year>  (111) 
nan

>  <USAN Stem Definition>  (111) 
nan

>  <USAN Stem Substem>  (111) 
nan

>  <First Approval>  (111) 
nan

>  <ATC Codes>  (111) 
nan

>  <Level 4 ATC Codes>  (111) 
nan

>  <Level 3 ATC Codes>  (111) 
nan

>  <Level 2 ATC Codes>  (111) 
nan

>  <Level 1 ATC Codes>  (111) 
nan

>  <Indication Class>  (111) 
nan

>  <Patent>  (111) 
nan

>  <Drug Type>  (111) 
1:Synthetic Small Molecule

>  <Passes Rule of Five>  (111) 
False

>  <First In Class>  (111) 
False

>  <Chirality>  (111) 
Single Stereoisomer

>  <Prodrug>  (111) 
False

>  <Oral>  (111) 
False

>  <Parenteral>  (111) 
False

>  <Topical>  (111) 
False

>  <Black Box>  (111) 
False

>  <Availability Type>  (111) 
Unknown

>  <Withdrawn Year>  (111) 
nan

>  <Withdrawn Reason>  (111) 
nan

>  <Withdrawn Country>  (111) 
nan

>  <Withdrawn Class>  (111) 
nan

>  <SMILES>  (111) 
CCOC[C@]12Cc3cnn(-c4ccc(F)cc4)c3C=C1CCN(S(=O)(=O)c1ccc(C(F)(F)F)cc1)C2

>  <InChi Key>  (111) 
SLKURXRZHJOZOD-RUZDIDTESA-N

$$$$
CHEMBL1420319
     RDKit          2D

 18 19  0  0  0  0  0  0  0  0999 V2000
    3.0000   -1.5000    0.0000 C   0  0  0  0  0  0  0  0  0  0  0  0
    3.0000    0.0000    0.0000 C   0  0  0  0  0  0  0  0  0  0  0  0
    3.0000    1.5000    0.0000 C   0  0  0  0  0  0  0  0  0  0  0  0
    4.5000    0.0000    0.0000 C   0  0  0  0  0  0  0  0  0  0  0  0
    1.5000    0.0000    0.0000 C   0  0  0  0  0  0  0  0  0  0  0  0
    0.7500   -1.2990    0.0000 C   0  0  0  0  0  0  0  0  0  0  0  0
   -0.7500   -1.2990    0.0000 C   0  0  0  0  0  0  0  0  0  0  0  0
   -1.5000    0.0000    0.0000 C   0  0  0  0  0  0  0  0  0  0  0  0
   -3.0000    0.0000    0.0000 O   0  0  0  0  0  0  0  0  0  0  0  0
   -3.7500    1.2990    0.0000 C   0  0  0  0  0  0  0  0  0  0  0  0
   -3.0000    2.5981    0.0000 C   0  0  0  0  0  0  0  0  0  0  0  0
   -3.7500    3.8971    0.0000 C   0  0  0  0  0  0  0  0  0  0  0  0
   -5.2500    3.8971    0.0000 C   0  0  0  0  0  0  0  0  0  0  0  0
   -6.0000    5.1962    0.0000 N   0  0  0  0  0  0  0  0  0  0  0  0
   -6.0000    2.5981    0.0000 C   0  0  0  0  0  0  0  0  0  0  0  0
   -5.2500    1.2990    0.0000 N   0  0  0  0  0  0  0  0  0  0  0  0
   -0.7500    1.2990    0.0000 C   0  0  0  0  0  0  0  0  0  0  0  0
    0.7500    1.2990    0.0000 C   0  0  0  0  0  0  0  0  0  0  0  0
  1  2  1  0
  2  3  1  0
  2  4  1  0
  2  5  1  0
  5  6  2  0
  6  7  1  0
  7  8  2  0
  8  9  1  0
  9 10  1  0
 10 11  2  0
 11 12  1  0
 12 13  2  0
 13 14  1  0
 13 15  1  0
 15 16  2  0
  8 17  1  0
 17 18  2  0
 18  5  1  0
 16 10  1  0
M  END
>  <Synonyms>  (112) 
CB-103

>  <Research Codes>  (112) 
CB-103

>  <Phase>  (112) 
1

>  <Applicants>  (112) 
nan

>  <USAN Stem>  (112) 
nan

>  <USAN Year>  (112) 
nan

>  <USAN Stem Definition>  (112) 
nan

>  <USAN Stem Substem>  (112) 
nan

>  <First Approval>  (112) 
nan

>  <ATC Codes>  (112) 
nan

>  <Level 4 ATC Codes>  (112) 
nan

>  <Level 3 ATC Codes>  (112) 
nan

>  <Level 2 ATC Codes>  (112) 
nan

>  <Level 1 ATC Codes>  (112) 
nan

>  <Indication Class>  (112) 
nan

>  <Patent>  (112) 
nan

>  <Drug Type>  (112) 
1:Synthetic Small Molecule

>  <Passes Rule of Five>  (112) 
True

>  <First In Class>  (112) 
False

>  <Chirality>  (112) 
Achiral Molecule

>  <Prodrug>  (112) 
False

>  <Oral>  (112) 
False

>  <Parenteral>  (112) 
False

>  <Topical>  (112) 
False

>  <Black Box>  (112) 
False

>  <Availability Type>  (112) 
Unknown

>  <Withdrawn Year>  (112) 
nan

>  <Withdrawn Reason>  (112) 
nan

>  <Withdrawn Country>  (112) 
nan

>  <Withdrawn Class>  (112) 
nan

>  <SMILES>  (112) 
CC(C)(C)c1ccc(Oc2ccc(N)cn2)cc1

>  <InChi Key>  (112) 
WHIWGRCYMQLLAO-UHFFFAOYSA-N

$$$$
CHEMBL2364618
     RDKit          2D

 31 34  0  0  0  0  0  0  0  0999 V2000
    2.4510   -0.5490    0.0000 C   0  0  0  0  0  0  0  0  0  0  0  0
    3.7500   -1.2990    0.0000 C   0  0  0  0  0  0  0  0  0  0  0  0
    5.0490   -2.0490    0.0000 C   0  0  0  0  0  0  0  0  0  0  0  0
    4.5000   -0.0000    0.0000 O   0  0  0  0  0  0  0  0  0  0  0  0
    3.0000   -2.5981    0.0000 C   0  0  0  0  0  0  0  0  0  0  0  0
    3.7500   -3.8971    0.0000 C   0  0  0  0  0  0  0  0  0  0  0  0
    3.0000   -5.1962    0.0000 C   0  0  0  0  0  0  0  0  0  0  0  0
    1.5000   -5.1962    0.0000 C   0  0  0  0  0  0  0  0  0  0  0  0
    0.7500   -3.8971    0.0000 C   0  0  0  0  0  0  0  0  0  0  0  0
    1.5000   -2.5981    0.0000 C   0  0  0  0  0  0  0  0  0  0  0  0
    0.7500   -1.2990    0.0000 C   0  0  0  0  0  0  0  0  0  0  0  0
    1.5000    0.0000    0.0000 C   0  0  0  0  0  0  0  0  0  0  0  0
    0.7500    1.2990    0.0000 C   0  0  0  0  0  0  0  0  0  0  0  0
   -0.7500    1.2990    0.0000 C   0  0  0  0  0  0  0  0  0  0  0  0
   -1.7537    2.4138    0.0000 N   0  0  0  0  0  0  0  0  0  0  0  0
   -3.1240    1.8037    0.0000 C   0  0  0  0  0  0  0  0  0  0  0  0
   -4.4231    2.5537    0.0000 C   0  0  0  0  0  0  0  0  0  0  0  0
   -4.4231    4.0537    0.0000 C   0  0  0  0  0  0  0  0  0  0  0  0
   -5.7221    4.8037    0.0000 C   0  0  0  0  0  0  0  0  0  0  0  0
   -5.7221    6.3037    0.0000 C   0  0  0  0  0  0  0  0  0  0  0  0
   -7.0211    7.0537    0.0000 C   0  0  0  0  0  0  0  0  0  0  0  0
   -8.3202    6.3037    0.0000 C   0  0  0  0  0  0  0  0  0  0  0  0
   -9.6192    7.0537    0.0000 C   0  0  0  0  0  0  0  0  0  0  0  0
  -10.9182    7.8037    0.0000 F   0  0  0  0  0  0  0  0  0  0  0  0
   -8.8692    8.3527    0.0000 F   0  0  0  0  0  0  0  0  0  0  0  0
  -10.3692    5.7546    0.0000 F   0  0  0  0  0  0  0  0  0  0  0  0
   -8.3202    4.8037    0.0000 C   0  0  0  0  0  0  0  0  0  0  0  0
   -7.0211    4.0537    0.0000 C   0  0  0  0  0  0  0  0  0  0  0  0
   -2.9672    0.3119    0.0000 N   0  0  0  0  0  0  0  0  0  0  0  0
   -1.5000    0.0000    0.0000 C   0  0  0  0  0  0  0  0  0  0  0  0
   -0.7500   -1.2990    0.0000 C   0  0  0  0  0  0  0  0  0  0  0  0
  1  2  1  0
  2  3  1  0
  2  4  1  0
  2  5  1  0
  5  6  2  0
  6  7  1  0
  7  8  2  0
  8  9  1  0
  9 10  2  0
 10 11  1  0
 11 12  2  0
 12 13  1  0
 13 14  2  0
 14 15  1  0
 15 16  1  0
 16 17  1  0
 17 18  2  0
 18 19  1  0
 19 20  2  0
 20 21  1  0
 21 22  2  0
 22 23  1  0
 23 24  1  0
 23 25  1  0
 23 26  1  0
 22 27  1  0
 27 28  2  0
 16 29  2  0
 29 30  1  0
 30 31  2  0
 10  5  1  0
 31 11  1  0
 30 14  1  0
 28 19  1  0
M  END
>  <Synonyms>  (113) 
JNJ-39439335|MAVATREP

>  <Research Codes>  (113) 
JNJ-39439335

>  <Phase>  (113) 
1

>  <Applicants>  (113) 
nan

>  <USAN Stem>  (113) 
'-trep'

>  <USAN Year>  (113) 
2012.0

>  <USAN Stem Definition>  (113) 
transient receptor potential antagonists: vanilloid 1 (TRPV1) type

>  <USAN Stem Substem>  (113) 
'-trep(-trep (-vatrep))'

>  <First Approval>  (113) 
nan

>  <ATC Codes>  (113) 
nan

>  <Level 4 ATC Codes>  (113) 
nan

>  <Level 3 ATC Codes>  (113) 
nan

>  <Level 2 ATC Codes>  (113) 
nan

>  <Level 1 ATC Codes>  (113) 
nan

>  <Indication Class>  (113) 
nan

>  <Patent>  (113) 
nan

>  <Drug Type>  (113) 
1:Synthetic Small Molecule

>  <Passes Rule of Five>  (113) 
False

>  <First In Class>  (113) 
False

>  <Chirality>  (113) 
Racemic Mixture

>  <Prodrug>  (113) 
False

>  <Oral>  (113) 
False

>  <Parenteral>  (113) 
False

>  <Topical>  (113) 
False

>  <Black Box>  (113) 
False

>  <Availability Type>  (113) 
Unknown

>  <Withdrawn Year>  (113) 
nan

>  <Withdrawn Reason>  (113) 
nan

>  <Withdrawn Country>  (113) 
nan

>  <Withdrawn Class>  (113) 
nan

>  <SMILES>  (113) 
CC(C)(O)c1ccccc1-c1ccc2[nH]c(/C=C/c3ccc(C(F)(F)F)cc3)nc2c1

>  <InChi Key>  (113) 
ORDHXXHTBUZRCN-NTEUORMPSA-N

$$$$
CHEMBL398110
     RDKit          2D

 17 17  0  0  0  0  0  0  0  0999 V2000
    5.0260   -1.2990    0.0000 C   0  0  0  0  0  0  0  0  0  0  0  0
    3.5260   -1.2990    0.0000 C   0  0  0  0  0  0  0  0  0  0  0  0
    2.7760    0.0000    0.0000 C   0  0  0  0  0  0  0  0  0  0  0  0
    1.2760    0.0000    0.0000 N   0  0  0  0  0  0  0  0  0  0  0  0
    0.3943    1.2135    0.0000 C   0  0  0  0  0  0  0  0  0  0  0  0
   -1.0323    0.7500    0.0000 N   0  0  0  0  0  0  0  0  0  0  0  0
   -1.0323   -0.7500    0.0000 C   0  0  0  0  0  0  0  0  0  0  0  0
   -2.2458   -1.6317    0.0000 C   0  0  0  0  0  0  0  0  0  0  0  0
   -3.6161   -1.0216    0.0000 C   0  0  0  0  0  0  0  0  0  0  0  0
   -4.8297   -1.9033    0.0000 C   0  0  0  0  0  0  0  0  0  0  0  0
   -6.2000   -1.2931    0.0000 C   0  0  0  0  0  0  0  0  0  0  0  0
   -7.4135   -2.1748    0.0000 C   0  0  0  0  0  0  0  0  0  0  0  0
   -8.7838   -1.5647    0.0000 N   0  0  0  0  0  0  0  0  0  0  0  0
   -3.7729    0.4702    0.0000 C   0  0  0  0  0  0  0  0  0  0  0  0
   -5.1432    1.0803    0.0000 O   0  0  0  0  0  0  0  0  0  0  0  0
   -2.5594    1.3519    0.0000 O   0  0  0  0  0  0  0  0  0  0  0  0
    0.3943   -1.2135    0.0000 C   0  0  0  0  0  0  0  0  0  0  0  0
  1  2  1  0
  2  3  1  0
  3  4  1  0
  4  5  1  0
  5  6  2  0
  6  7  1  0
  7  8  1  0
  8  9  1  0
  9 10  1  0
 10 11  1  0
 11 12  1  0
 12 13  1  0
  9 14  1  0
 14 15  2  0
 14 16  1  0
  7 17  2  0
 17  4  1  0
M  END
>  <Synonyms>  (114) 
UK 396082|UK-396,082|UK-396082

>  <Research Codes>  (114) 
UK 396082|UK-396082

>  <Phase>  (114) 
1

>  <Applicants>  (114) 
nan

>  <USAN Stem>  (114) 
nan

>  <USAN Year>  (114) 
nan

>  <USAN Stem Definition>  (114) 
nan

>  <USAN Stem Substem>  (114) 
nan

>  <First Approval>  (114) 
nan

>  <ATC Codes>  (114) 
nan

>  <Level 4 ATC Codes>  (114) 
nan

>  <Level 3 ATC Codes>  (114) 
nan

>  <Level 2 ATC Codes>  (114) 
nan

>  <Level 1 ATC Codes>  (114) 
nan

>  <Indication Class>  (114) 
nan

>  <Patent>  (114) 
nan

>  <Drug Type>  (114) 
1:Synthetic Small Molecule

>  <Passes Rule of Five>  (114) 
True

>  <First In Class>  (114) 
False

>  <Chirality>  (114) 
Single Stereoisomer

>  <Prodrug>  (114) 
False

>  <Oral>  (114) 
False

>  <Parenteral>  (114) 
False

>  <Topical>  (114) 
False

>  <Black Box>  (114) 
False

>  <Availability Type>  (114) 
Unknown

>  <Withdrawn Year>  (114) 
nan

>  <Withdrawn Reason>  (114) 
nan

>  <Withdrawn Country>  (114) 
nan

>  <Withdrawn Class>  (114) 
nan

>  <SMILES>  (114) 
CCCn1cnc(C[C@H](CCCN)C(=O)O)c1

>  <InChi Key>  (114) 
OTDGPKRCQXSTPV-UHFFFAOYSA-N

$$$$
CHEMBL1182997
     RDKit          2D

 70 75  0  0  0  0  0  0  0  0999 V2000
    3.7500   -1.2990    0.0000 C   0  0  0  0  0  0  0  0  0  0  0  0
    3.0000    0.0000    0.0000 O   0  0  0  0  0  0  0  0  0  0  0  0
    1.5000    0.0000    0.0000 C   0  0  0  0  0  0  0  0  0  0  0  0
    0.7500   -1.2990    0.0000 C   0  0  0  0  0  0  0  0  0  0  0  0
   -0.7500   -1.2990    0.0000 C   0  0  0  0  0  0  0  0  0  0  0  0
   -1.5000    0.0000    0.0000 C   0  0  0  0  0  0  0  0  0  0  0  0
   -0.7500    1.2990    0.0000 C   0  0  0  0  0  0  0  0  0  0  0  0
    0.7500    1.2990    0.0000 C   0  0  0  0  0  0  0  0  0  0  0  0
    1.5000    2.5981    0.0000 O   0  0  0  0  0  0  0  0  0  0  0  0
    0.7500    3.8971    0.0000 C   0  0  0  0  0  0  0  0  0  0  0  0
   -3.0000    0.0000    0.0000 C   0  0  0  0  0  0  0  0  0  0  0  0
   -3.7500    1.2990    0.0000 C   0  0  0  0  0  0  0  0  0  0  0  0
   -3.0000    2.5981    0.0000 C   0  0  0  0  0  0  0  0  0  0  0  0
   -3.7500    3.8971    0.0000 C   0  0  0  0  0  0  0  0  0  0  0  0
   -3.0000    5.1962    0.0000 O   0  0  0  0  0  0  0  0  0  0  0  0
   -1.5000    5.1962    0.0000 C   0  0  0  0  0  0  0  0  0  0  0  0
   -5.2500    3.8971    0.0000 C   0  0  0  0  0  0  0  0  0  0  0  0
   -6.0000    5.1962    0.0000 O   0  0  0  0  0  0  0  0  0  0  0  0
   -7.5000    5.1962    0.0000 C   0  0  0  0  0  0  0  0  0  0  0  0
   -6.0000    2.5981    0.0000 C   0  0  0  0  0  0  0  0  0  0  0  0
   -7.5000    2.5981    0.0000 O   0  0  0  0  0  0  0  0  0  0  0  0
   -8.2500    1.2990    0.0000 C   0  0  0  0  0  0  0  0  0  0  0  0
   -5.2500    1.2990    0.0000 C   0  0  0  0  0  0  0  0  0  0  0  0
   -3.7500   -1.2990    0.0000 N   0  0  0  0  0  4  0  0  0  0  0  0
   -4.8991   -2.2632    0.0000 C   0  0  0  0  0  0  0  0  0  0  0  0
   -4.8991   -0.3349    0.0000 C   0  0  0  0  0  0  0  0  0  0  0  0
   -6.3086   -0.8479    0.0000 C   0  0  0  0  0  0  0  0  0  0  0  0
   -7.4577    0.1163    0.0000 C   0  0  0  0  0  0  0  0  0  0  0  0
   -8.8672   -0.3967    0.0000 O   0  0  0  0  0  0  0  0  0  0  0  0
  -10.0163    0.5674    0.0000 C   0  0  0  0  0  0  0  0  0  0  0  0
   -9.7558    2.0447    0.0000 O   0  0  0  0  0  0  0  0  0  0  0  0
  -11.4258    0.0544    0.0000 C   0  0  0  0  0  0  0  0  0  0  0  0
  -12.5749    1.0186    0.0000 C   0  0  0  0  0  0  0  0  0  0  0  0
  -12.3144    2.4958    0.0000 Cl  0  0  0  0  0  0  0  0  0  0  0  0
  -13.9844    0.5056    0.0000 C   0  0  0  0  0  0  0  0  0  0  0  0
  -14.2449   -0.9716    0.0000 O   0  0  0  0  0  0  0  0  0  0  0  0
  -15.1335    1.4697    0.0000 O   0  0  0  0  0  0  0  0  0  0  0  0
  -16.5430    0.9567    0.0000 C   0  0  0  0  0  0  0  0  0  0  0  0
  -17.6921    1.9209    0.0000 C   0  0  0  0  0  0  0  0  0  0  0  0
  -19.1016    1.4079    0.0000 C   0  0  0  0  0  0  0  0  0  0  0  0
  -20.2507    2.3721    0.0000 N   0  0  0  0  0  4  0  0  0  0  0  0
  -19.1016    3.3362    0.0000 C   0  0  0  0  0  0  0  0  0  0  0  0
  -21.0007    1.0730    0.0000 C   0  0  0  0  0  0  0  0  0  0  0  0
  -22.5007    1.0730    0.0000 C   0  0  0  0  0  0  0  0  0  0  0  0
  -23.2507    2.3721    0.0000 C   0  0  0  0  0  0  0  0  0  0  0  0
  -24.7507    2.3721    0.0000 C   0  0  0  0  0  0  0  0  0  0  0  0
  -25.5007    3.6711    0.0000 C   0  0  0  0  0  0  0  0  0  0  0  0
  -27.0007    3.6711    0.0000 O   0  0  0  0  0  0  0  0  0  0  0  0
  -27.7507    4.9701    0.0000 C   0  0  0  0  0  0  0  0  0  0  0  0
  -24.7507    4.9701    0.0000 C   0  0  0  0  0  0  0  0  0  0  0  0
  -25.5007    6.2692    0.0000 O   0  0  0  0  0  0  0  0  0  0  0  0
  -24.7507    7.5682    0.0000 C   0  0  0  0  0  0  0  0  0  0  0  0
  -23.2507    4.9701    0.0000 C   0  0  0  0  0  0  0  0  0  0  0  0
  -22.5007    3.6711    0.0000 C   0  0  0  0  0  0  0  0  0  0  0  0
  -21.0007    3.6711    0.0000 C   0  0  0  0  0  0  0  0  0  0  0  0
  -20.2507    4.9701    0.0000 C   0  0  0  0  0  0  0  0  0  0  0  0
  -18.7507    4.9701    0.0000 C   0  0  0  0  0  0  0  0  0  0  0  0
  -18.0007    3.6711    0.0000 C   0  0  0  0  0  0  0  0  0  0  0  0
  -16.5007    3.6711    0.0000 C   0  0  0  0  0  0  0  0  0  0  0  0
  -15.7507    2.3721    0.0000 O   0  0  0  0  0  0  0  0  0  0  0  0
  -14.2507    2.3721    0.0000 C   0  0  0  0  0  0  0  0  0  0  0  0
  -15.7507    4.9701    0.0000 C   0  0  0  0  0  0  0  0  0  0  0  0
  -14.2507    4.9701    0.0000 O   0  0  0  0  0  0  0  0  0  0  0  0
  -13.5007    6.2692    0.0000 C   0  0  0  0  0  0  0  0  0  0  0  0
  -16.5007    6.2692    0.0000 C   0  0  0  0  0  0  0  0  0  0  0  0
  -15.7507    7.5682    0.0000 O   0  0  0  0  0  0  0  0  0  0  0  0
  -16.5007    8.8672    0.0000 C   0  0  0  0  0  0  0  0  0  0  0  0
  -18.0007    6.2692    0.0000 C   0  0  0  0  0  0  0  0  0  0  0  0
   -3.0000   -2.5981    0.0000 C   0  0  0  0  0  0  0  0  0  0  0  0
   -1.5000   -2.5981    0.0000 C   0  0  0  0  0  0  0  0  0  0  0  0
  1  2  1  0
  2  3  1  0
  3  4  2  0
  4  5  1  0
  5  6  2  0
  6  7  1  0
  7  8  2  0
  8  9  1  0
  9 10  1  0
  6 11  1  0
 11 12  1  1
 12 13  2  0
 13 14  1  0
 14 15  1  0
 15 16  1  0
 14 17  2  0
 17 18  1  0
 18 19  1  0
 17 20  1  0
 20 21  1  0
 21 22  1  0
 20 23  2  0
 11 24  1  0
 24 25  1  1
 24 26  1  0
 26 27  1  0
 27 28  1  0
 28 29  1  0
 29 30  1  0
 30 31  2  0
 30 32  1  0
 32 33  2  0
 33 34  1  0
 33 35  1  0
 35 36  2  0
 35 37  1  0
 37 38  1  0
 38 39  1  0
 39 40  1  0
 40 41  1  0
 41 42  1  1
 41 43  1  0
 43 44  1  0
 44 45  1  0
 45 46  2  0
 46 47  1  0
 47 48  1  0
 48 49  1  0
 47 50  2  0
 50 51  1  0
 51 52  1  0
 50 53  1  0
 53 54  2  0
 54 55  1  0
 55 56  1  1
 56 57  1  0
 57 58  2  0
 58 59  1  0
 59 60  1  0
 60 61  1  0
 59 62  2  0
 62 63  1  0
 63 64  1  0
 62 65  1  0
 65 66  1  0
 66 67  1  0
 65 68  2  0
 24 69  1  0
 69 70  1  0
  8  3  1  0
 23 12  1  0
 55 41  1  0
 68 57  1  0
 70  5  1  0
 54 45  1  0
M  CHG  2  24   1  41   1
M  END
>  <Synonyms>  (115) 
nan

>  <Research Codes>  (115) 
nan

>  <Phase>  (115) 
1

>  <Applicants>  (115) 
nan

>  <USAN Stem>  (115) 
'-ium'

>  <USAN Year>  (115) 
2004.0

>  <USAN Stem Definition>  (115) 
quaternary ammonium derivatives: neuromuscular blocking agents

>  <USAN Stem Substem>  (115) 
'-ium(-ium (-curium))'

>  <First Approval>  (115) 
nan

>  <ATC Codes>  (115) 
nan

>  <Level 4 ATC Codes>  (115) 
nan

>  <Level 3 ATC Codes>  (115) 
nan

>  <Level 2 ATC Codes>  (115) 
nan

>  <Level 1 ATC Codes>  (115) 
nan

>  <Indication Class>  (115) 
nan

>  <Patent>  (115) 
nan

>  <Drug Type>  (115) 
1:Synthetic Small Molecule

>  <Passes Rule of Five>  (115) 
False

>  <First In Class>  (115) 
False

>  <Chirality>  (115) 
Single Stereoisomer

>  <Prodrug>  (115) 
False

>  <Oral>  (115) 
False

>  <Parenteral>  (115) 
False

>  <Topical>  (115) 
False

>  <Black Box>  (115) 
False

>  <Availability Type>  (115) 
Unknown

>  <Withdrawn Year>  (115) 
nan

>  <Withdrawn Reason>  (115) 
nan

>  <Withdrawn Country>  (115) 
nan

>  <Withdrawn Class>  (115) 
nan

>  <SMILES>  (115) 
COc1cc2c(cc1OC)[C@H](c1cc(OC)c(OC)c(OC)c1)[N@@+](C)(CCCOC(=O)/C=C(\Cl)C(=O)OCCC[N@+]1(C)CCc3cc(OC)c(OC)cc3[C@H]1Cc1cc(OC)c(OC)c(OC)c1)CC2

>  <InChi Key>  (115) 
ZQLDXCSTJFLRPY-RWBXLJKRSA-N

$$$$
CHEMBL573677
     RDKit          2D

 42 45  0  0  0  0  0  0  0  0999 V2000
    1.3038   -7.0686    0.0000 C   0  0  0  0  0  0  0  0  0  0  0  0
    0.7500   -6.4952    0.0000 C   0  0  0  0  0  0  0  0  0  0  0  0
    1.5000   -5.1962    0.0000 C   0  0  0  0  0  0  0  0  0  0  0  0
    0.7500   -3.8971    0.0000 C   0  0  0  0  0  0  0  0  0  0  0  0
    1.5000   -2.5981    0.0000 O   0  0  0  0  0  0  0  0  0  0  0  0
    0.7500   -1.2990    0.0000 C   0  0  0  0  0  0  0  0  0  0  0  0
    1.5000    0.0000    0.0000 C   0  0  0  0  0  0  0  0  0  0  0  0
    0.7500    1.2990    0.0000 C   0  0  0  0  0  0  0  0  0  0  0  0
   -0.7500    1.2990    0.0000 C   0  0  0  0  0  0  0  0  0  0  0  0
   -1.5000    0.0000    0.0000 C   0  0  0  0  0  0  0  0  0  0  0  0
   -3.0000    0.0000    0.0000 C   0  0  0  0  0  0  0  0  0  0  0  0
   -3.7500    1.2990    0.0000 C   0  0  0  0  0  0  0  0  0  0  0  0
   -3.0000    2.5981    0.0000 O   0  0  0  0  0  0  0  0  0  0  0  0
   -5.2500    1.2990    0.0000 O   0  0  0  0  0  0  0  0  0  0  0  0
   -0.7500   -1.2990    0.0000 C   0  0  0  0  0  0  0  0  0  0  0  0
   -0.7500   -6.4952    0.0000 N   0  0  0  0  0  0  0  0  0  0  0  0
   -1.5000   -5.1962    0.0000 C   0  0  0  0  0  0  0  0  0  0  0  0
   -3.0000   -5.1962    0.0000 C   0  0  0  0  0  0  0  0  0  0  0  0
   -3.7500   -3.8971    0.0000 C   0  0  0  0  0  0  0  0  0  0  0  0
   -5.2500   -3.8971    0.0000 C   0  0  0  0  0  0  0  0  0  0  0  0
   -6.0000   -5.1962    0.0000 C   0  0  0  0  0  0  0  0  0  0  0  0
   -5.2500   -6.4952    0.0000 C   0  0  0  0  0  0  0  0  0  0  0  0
   -6.0000   -7.7942    0.0000 C   0  0  0  0  0  0  0  0  0  0  0  0
   -6.7500   -9.0933    0.0000 F   0  0  0  0  0  0  0  0  0  0  0  0
   -7.2990   -7.0442    0.0000 F   0  0  0  0  0  0  0  0  0  0  0  0
   -4.7010   -8.5442    0.0000 F   0  0  0  0  0  0  0  0  0  0  0  0
   -3.7500   -6.4952    0.0000 C   0  0  0  0  0  0  0  0  0  0  0  0
   -3.0000   -7.7942    0.0000 Cl  0  0  0  0  0  0  0  0  0  0  0  0
   -1.5000   -7.7942    0.0000 C   0  0  0  0  0  0  0  0  0  0  0  0
   -0.7500   -9.0933    0.0000 C   0  0  0  0  0  0  0  0  0  0  0  0
   -1.5000  -10.3923    0.0000 C   0  0  0  0  0  0  0  0  0  0  0  0
   -0.7500  -11.6913    0.0000 C   0  0  0  0  0  0  0  0  0  0  0  0
   -1.5000  -12.9904    0.0000 C   0  0  0  0  0  0  0  0  0  0  0  0
   -3.0000  -12.9904    0.0000 C   0  0  0  0  0  0  0  0  0  0  0  0
   -3.7500  -11.6913    0.0000 C   0  0  0  0  0  0  0  0  0  0  0  0
   -3.0000  -10.3923    0.0000 C   0  0  0  0  0  0  0  0  0  0  0  0
    0.7500   -9.0933    0.0000 C   0  0  0  0  0  0  0  0  0  0  0  0
    1.5000   -7.7942    0.0000 C   0  0  0  0  0  0  0  0  0  0  0  0
    3.0000   -7.7942    0.0000 C   0  0  0  0  0  0  0  0  0  0  0  0
    3.7500   -9.0933    0.0000 C   0  0  0  0  0  0  0  0  0  0  0  0
    3.0000  -10.3923    0.0000 C   0  0  0  0  0  0  0  0  0  0  0  0
    1.5000  -10.3923    0.0000 C   0  0  0  0  0  0  0  0  0  0  0  0
  2  1  1  1
  2  3  1  0
  3  4  1  0
  4  5  1  0
  5  6  1  0
  6  7  2  0
  7  8  1  0
  8  9  2  0
  9 10  1  0
 10 11  1  0
 11 12  1  0
 12 13  2  0
 12 14  1  0
 10 15  2  0
  2 16  1  0
 16 17  1  0
 17 18  1  0
 18 19  2  0
 19 20  1  0
 20 21  2  0
 21 22  1  0
 22 23  1  0
 23 24  1  0
 23 25  1  0
 23 26  1  0
 22 27  2  0
 27 28  1  0
 16 29  1  0
 29 30  1  0
 30 31  1  0
 31 32  2  0
 32 33  1  0
 33 34  2  0
 34 35  1  0
 35 36  2  0
 30 37  1  0
 37 38  2  0
 38 39  1  0
 39 40  2  0
 40 41  1  0
 41 42  2  0
 15  6  1  0
 27 18  1  0
 36 31  1  0
 42 37  1  0
M  END
>  <Synonyms>  (116) 
RGX-104|SB-742881

>  <Research Codes>  (116) 
RGX-104|SB-742881

>  <Phase>  (116) 
1

>  <Applicants>  (116) 
nan

>  <USAN Stem>  (116) 
nan

>  <USAN Year>  (116) 
nan

>  <USAN Stem Definition>  (116) 
nan

>  <USAN Stem Substem>  (116) 
nan

>  <First Approval>  (116) 
nan

>  <ATC Codes>  (116) 
nan

>  <Level 4 ATC Codes>  (116) 
nan

>  <Level 3 ATC Codes>  (116) 
nan

>  <Level 2 ATC Codes>  (116) 
nan

>  <Level 1 ATC Codes>  (116) 
nan

>  <Indication Class>  (116) 
nan

>  <Patent>  (116) 
nan

>  <Drug Type>  (116) 
1:Synthetic Small Molecule

>  <Passes Rule of Five>  (116) 
False

>  <First In Class>  (116) 
False

>  <Chirality>  (116) 
Single Stereoisomer

>  <Prodrug>  (116) 
False

>  <Oral>  (116) 
False

>  <Parenteral>  (116) 
False

>  <Topical>  (116) 
False

>  <Black Box>  (116) 
False

>  <Availability Type>  (116) 
Unknown

>  <Withdrawn Year>  (116) 
nan

>  <Withdrawn Reason>  (116) 
nan

>  <Withdrawn Country>  (116) 
nan

>  <Withdrawn Class>  (116) 
nan

>  <SMILES>  (116) 
C[C@H](CCOc1cccc(CC(=O)O)c1)N(Cc1cccc(C(F)(F)F)c1Cl)CC(c1ccccc1)c1ccccc1

>  <InChi Key>  (116) 
ZLJZDYOBXVOTSA-XMMPIXPASA-N

$$$$
CHEMBL1181731
     RDKit          2D

 44 45  0  0  0  0  0  0  0  0999 V2000
   21.0000  -10.3923    0.0000 C   0  0  0  0  0  0  0  0  0  0  0  0
   19.5000  -10.3923    0.0000 O   0  0  0  0  0  0  0  0  0  0  0  0
   18.7500   -9.0933    0.0000 C   0  0  0  0  0  0  0  0  0  0  0  0
   17.2500   -9.0933    0.0000 C   0  0  0  0  0  0  0  0  0  0  0  0
   16.5000   -7.7942    0.0000 O   0  0  0  0  0  0  0  0  0  0  0  0
   15.0000   -7.7942    0.0000 C   0  0  0  0  0  0  0  0  0  0  0  0
   14.2500   -6.4952    0.0000 C   0  0  0  0  0  0  0  0  0  0  0  0
   12.7500   -6.4952    0.0000 O   0  0  0  0  0  0  0  0  0  0  0  0
   12.0000   -5.1962    0.0000 C   0  0  0  0  0  0  0  0  0  0  0  0
   10.5000   -5.1962    0.0000 C   0  0  0  0  0  0  0  0  0  0  0  0
    9.7500   -3.8971    0.0000 O   0  0  0  0  0  0  0  0  0  0  0  0
    8.2500   -3.8971    0.0000 C   0  0  0  0  0  0  0  0  0  0  0  0
    7.5000   -2.5981    0.0000 C   0  0  0  0  0  0  0  0  0  0  0  0
    6.0000   -2.5981    0.0000 O   0  0  0  0  0  0  0  0  0  0  0  0
    5.2500   -1.2990    0.0000 C   0  0  0  0  0  0  0  0  0  0  0  0
    6.0000    0.0000    0.0000 O   0  0  0  0  0  0  0  0  0  0  0  0
    3.7500   -1.2990    0.0000 O   0  0  0  0  0  0  0  0  0  0  0  0
    3.0000    0.0000    0.0000 C   0  0  0  0  0  0  0  0  0  0  0  0
    1.5000    0.0000    0.0000 N   0  0  0  0  0  4  0  0  0  0  0  0
    0.7500   -1.2990    0.0000 C   0  0  0  0  0  0  0  0  0  0  0  0
   -0.7500   -1.2990    0.0000 C   0  0  0  0  0  0  0  0  0  0  0  0
   -1.5000    0.0000    0.0000 C   0  0  0  0  0  0  0  0  0  0  0  0
   -3.0000    0.0000    0.0000 N   0  0  0  0  0  0  0  0  0  0  0  0
   -3.7500    1.2990    0.0000 C   0  0  0  0  0  0  0  0  0  0  0  0
   -5.2500    1.2990    0.0000 N   0  0  0  0  0  0  0  0  0  0  0  0
   -6.0000    2.5981    0.0000 C   0  0  0  0  0  0  0  0  0  0  0  0
   -7.5000    2.5981    0.0000 C   0  0  0  0  0  0  0  0  0  0  0  0
   -8.2500    3.8971    0.0000 C   0  0  0  0  0  0  0  0  0  0  0  0
   -9.7500    3.8971    0.0000 C   0  0  0  0  0  0  0  0  0  0  0  0
  -10.5000    5.1962    0.0000 C   0  0  0  0  0  0  0  0  0  0  0  0
  -12.0000    5.1962    0.0000 C   0  0  0  0  0  0  0  0  0  0  0  0
  -12.7500    6.4952    0.0000 O   0  0  0  0  0  0  0  0  0  0  0  0
  -14.2500    6.4952    0.0000 C   0  0  0  0  0  0  0  0  0  0  0  0
  -15.0000    7.7942    0.0000 C   0  0  0  0  0  0  0  0  0  0  0  0
  -16.5000    7.7942    0.0000 C   0  0  0  0  0  0  0  0  0  0  0  0
  -17.2500    6.4952    0.0000 C   0  0  0  0  0  0  0  0  0  0  0  0
  -18.7500    6.4952    0.0000 Cl  0  0  0  0  0  0  0  0  0  0  0  0
  -16.5000    5.1962    0.0000 C   0  0  0  0  0  0  0  0  0  0  0  0
  -15.0000    5.1962    0.0000 C   0  0  0  0  0  0  0  0  0  0  0  0
   -3.0000    2.5981    0.0000 N   0  0  0  0  0  0  0  0  0  0  0  0
   -3.7500    3.8971    0.0000 C   0  0  0  0  0  0  0  0  0  0  0  0
   -4.5000    5.1962    0.0000 N   0  0  0  0  0  0  0  0  0  0  0  0
   -0.7500    1.2990    0.0000 C   0  0  0  0  0  0  0  0  0  0  0  0
    0.7500    1.2990    0.0000 C   0  0  0  0  0  0  0  0  0  0  0  0
  1  2  1  0
  2  3  1  0
  3  4  1  0
  4  5  1  0
  5  6  1  0
  6  7  1  0
  7  8  1  0
  8  9  1  0
  9 10  1  0
 10 11  1  0
 11 12  1  0
 12 13  1  0
 13 14  1  0
 14 15  1  0
 15 16  2  0
 15 17  1  0
 17 18  1  0
 18 19  1  0
 19 20  2  0
 20 21  1  0
 21 22  2  0
 22 23  1  0
 23 24  2  3
 24 25  1  0
 25 26  1  0
 26 27  1  0
 27 28  1  0
 28 29  1  0
 29 30  1  0
 30 31  1  0
 31 32  1  0
 32 33  1  0
 33 34  2  0
 34 35  1  0
 35 36  2  0
 36 37  1  0
 36 38  1  0
 38 39  2  0
 24 40  1  0
 40 41  1  0
 41 42  3  0
 22 43  1  0
 43 44  2  0
 44 19  1  0
 39 33  1  0
M  CHG  1  19   1
M  END
>  <Synonyms>  (117) 
nan

>  <Research Codes>  (117) 
nan

>  <Phase>  (117) 
1

>  <Applicants>  (117) 
nan

>  <USAN Stem>  (117) 
nan

>  <USAN Year>  (117) 
2009.0

>  <USAN Stem Definition>  (117) 
nan

>  <USAN Stem Substem>  (117) 
nan

>  <First Approval>  (117) 
nan

>  <ATC Codes>  (117) 
nan

>  <Level 4 ATC Codes>  (117) 
nan

>  <Level 3 ATC Codes>  (117) 
nan

>  <Level 2 ATC Codes>  (117) 
nan

>  <Level 1 ATC Codes>  (117) 
nan

>  <Indication Class>  (117) 
nan

>  <Patent>  (117) 
nan

>  <Drug Type>  (117) 
1:Synthetic Small Molecule

>  <Passes Rule of Five>  (117) 
False

>  <First In Class>  (117) 
False

>  <Chirality>  (117) 
Achiral Molecule

>  <Prodrug>  (117) 
False

>  <Oral>  (117) 
False

>  <Parenteral>  (117) 
False

>  <Topical>  (117) 
False

>  <Black Box>  (117) 
False

>  <Availability Type>  (117) 
Unknown

>  <Withdrawn Year>  (117) 
nan

>  <Withdrawn Reason>  (117) 
nan

>  <Withdrawn Country>  (117) 
nan

>  <Withdrawn Class>  (117) 
nan

>  <SMILES>  (117) 
COCCOCCOCCOCCOC(=O)OC[n+]1ccc(N/C(=N/CCCCCCOc2ccc(Cl)cc2)NC#N)cc1

>  <InChi Key>  (117) 
RXXJCNMVVRGOJB-UHFFFAOYSA-O

$$$$
CHEMBL384200
     RDKit          2D

 60 60  0  0  0  0  0  0  0  0999 V2000
   35.2500   16.8875    0.0000 C   0  0  0  0  0  0  0  0  0  0  0  0
   34.5000   15.5885    0.0000 C   0  0  0  0  0  0  0  0  0  0  0  0
   33.0000   15.5885    0.0000 C   0  0  0  0  0  0  0  0  0  0  0  0
   32.2500   14.2894    0.0000 C   0  0  0  0  0  0  0  0  0  0  0  0
   30.7500   14.2894    0.0000 C   0  0  0  0  0  0  0  0  0  0  0  0
   30.0000   12.9904    0.0000 C   0  0  0  0  0  0  0  0  0  0  0  0
   28.5000   12.9904    0.0000 C   0  0  0  0  0  0  0  0  0  0  0  0
   27.7500   11.6913    0.0000 C   0  0  0  0  0  0  0  0  0  0  0  0
   26.2500   11.6913    0.0000 C   0  0  0  0  0  0  0  0  0  0  0  0
   25.5000   10.3923    0.0000 C   0  0  0  0  0  0  0  0  0  0  0  0
   24.0000   10.3923    0.0000 C   0  0  0  0  0  0  0  0  0  0  0  0
   23.2500    9.0933    0.0000 C   0  0  0  0  0  0  0  0  0  0  0  0
   21.7500    9.0933    0.0000 C   0  0  0  0  0  0  0  0  0  0  0  0
   21.0000    7.7942    0.0000 C   0  0  0  0  0  0  0  0  0  0  0  0
   19.5000    7.7942    0.0000 C   0  0  0  0  0  0  0  0  0  0  0  0
   18.7500    6.4952    0.0000 C   0  0  0  0  0  0  0  0  0  0  0  0
   17.2500    6.4952    0.0000 C   0  0  0  0  0  0  0  0  0  0  0  0
   16.5000    5.1962    0.0000 C   0  0  0  0  0  0  0  0  0  0  0  0
   15.0000    5.1962    0.0000 C   0  0  0  0  0  0  0  0  0  0  0  0
   14.2500    3.8971    0.0000 C   0  0  0  0  0  0  0  0  0  0  0  0
   12.7500    3.8971    0.0000 C   0  0  0  0  0  0  0  0  0  0  0  0
   12.0000    2.5981    0.0000 C   0  0  0  0  0  0  0  0  0  0  0  0
   10.5000    2.5981    0.0000 C   0  0  0  0  0  0  0  0  0  0  0  0
    9.7500    1.2990    0.0000 C   0  0  0  0  0  0  0  0  0  0  0  0
    8.2500    1.2990    0.0000 C   0  0  0  0  0  0  0  0  0  0  0  0
    7.5000    0.0000    0.0000 C   0  0  0  0  0  0  0  0  0  0  0  0
    8.2500   -1.2990    0.0000 O   0  0  0  0  0  0  0  0  0  0  0  0
    6.0000    0.0000    0.0000 N   0  0  0  0  0  0  0  0  0  0  0  0
    5.2500   -1.2990    0.0000 C   0  0  0  0  0  0  0  0  0  0  0  0
    3.7500   -1.2990    0.0000 C   0  0  0  0  0  0  0  0  0  0  0  0
    3.0000    0.0000    0.0000 O   0  0  0  0  0  0  0  0  0  0  0  0
    1.5000    0.0000    0.0000 C   0  0  0  0  0  0  0  0  0  0  0  0
    0.7500   -1.2990    0.0000 O   0  0  0  0  0  0  0  0  0  0  0  0
   -0.7500   -1.2990    0.0000 C   0  0  0  0  0  0  0  0  0  0  0  0
   -1.5000   -2.5981    0.0000 C   0  0  0  0  0  0  0  0  0  0  0  0
   -0.7500   -3.8971    0.0000 O   0  0  0  0  0  0  0  0  0  0  0  0
   -1.5000    0.0000    0.0000 C   0  0  0  0  0  0  0  0  0  0  0  0
   -3.0000    0.0000    0.0000 O   0  0  0  0  0  0  0  0  0  0  0  0
   -0.7500    1.2990    0.0000 C   0  0  0  0  0  0  0  0  0  0  0  0
   -1.5000    2.5981    0.0000 O   0  0  0  0  0  0  0  0  0  0  0  0
    0.7500    1.2990    0.0000 C   0  0  0  0  0  0  0  0  0  0  0  0
    1.5000    2.5981    0.0000 O   0  0  0  0  0  0  0  0  0  0  0  0
    6.0000   -2.5981    0.0000 C   0  0  0  0  0  0  0  0  0  0  0  0
    7.5000   -2.5981    0.0000 O   0  0  0  0  0  0  0  0  0  0  0  0
    5.2500   -3.8971    0.0000 C   0  0  0  0  0  0  0  0  0  0  0  0
    3.7500   -3.8971    0.0000 O   0  0  0  0  0  0  0  0  0  0  0  0
    6.0000   -5.1962    0.0000 C   0  0  0  0  0  0  0  0  0  0  0  0
    5.2500   -6.4952    0.0000 C   0  0  0  0  0  0  0  0  0  0  0  0
    6.0000   -7.7942    0.0000 C   0  0  0  0  0  0  0  0  0  0  0  0
    5.2500   -9.0933    0.0000 C   0  0  0  0  0  0  0  0  0  0  0  0
    6.0000  -10.3923    0.0000 C   0  0  0  0  0  0  0  0  0  0  0  0
    5.2500  -11.6913    0.0000 C   0  0  0  0  0  0  0  0  0  0  0  0
    6.0000  -12.9904    0.0000 C   0  0  0  0  0  0  0  0  0  0  0  0
    5.2500  -14.2894    0.0000 C   0  0  0  0  0  0  0  0  0  0  0  0
    6.0000  -15.5885    0.0000 C   0  0  0  0  0  0  0  0  0  0  0  0
    5.2500  -16.8875    0.0000 C   0  0  0  0  0  0  0  0  0  0  0  0
    6.0000  -18.1865    0.0000 C   0  0  0  0  0  0  0  0  0  0  0  0
    5.2500  -19.4856    0.0000 C   0  0  0  0  0  0  0  0  0  0  0  0
    6.0000  -20.7846    0.0000 C   0  0  0  0  0  0  0  0  0  0  0  0
    5.2500  -22.0836    0.0000 C   0  0  0  0  0  0  0  0  0  0  0  0
  1  2  1  0
  2  3  1  0
  3  4  1  0
  4  5  1  0
  5  6  1  0
  6  7  1  0
  7  8  1  0
  8  9  1  0
  9 10  1  0
 10 11  1  0
 11 12  1  0
 12 13  1  0
 13 14  1  0
 14 15  1  0
 15 16  1  0
 16 17  1  0
 17 18  1  0
 18 19  1  0
 19 20  1  0
 20 21  1  0
 21 22  1  0
 22 23  1  0
 23 24  1  0
 24 25  1  0
 25 26  1  0
 26 27  2  0
 26 28  1  0
 28 29  1  0
 29 30  1  6
 30 31  1  0
 32 31  1  1
 32 33  1  0
 33 34  1  0
 34 35  1  6
 35 36  1  0
 34 37  1  0
 37 38  1  6
 37 39  1  0
 39 40  1  6
 39 41  1  0
 41 42  1  1
 29 43  1  0
 43 44  1  6
 43 45  1  0
 45 46  1  1
 45 47  1  0
 47 48  1  0
 48 49  1  0
 49 50  1  0
 50 51  1  0
 51 52  1  0
 52 53  1  0
 53 54  1  0
 54 55  1  0
 55 56  1  0
 56 57  1  0
 57 58  1  0
 58 59  1  0
 59 60  1  0
 41 32  1  0
M  END
>  <Synonyms>  (118) 
AGL-582|KRN-7000|KRN7000|RGI-7000

>  <Research Codes>  (118) 
AGL-582|KRN-7000|KRN7000|RGI-7000

>  <Phase>  (118) 
1

>  <Applicants>  (118) 
nan

>  <USAN Stem>  (118) 
nan

>  <USAN Year>  (118) 
nan

>  <USAN Stem Definition>  (118) 
nan

>  <USAN Stem Substem>  (118) 
nan

>  <First Approval>  (118) 
nan

>  <ATC Codes>  (118) 
nan

>  <Level 4 ATC Codes>  (118) 
nan

>  <Level 3 ATC Codes>  (118) 
nan

>  <Level 2 ATC Codes>  (118) 
nan

>  <Level 1 ATC Codes>  (118) 
nan

>  <Indication Class>  (118) 
nan

>  <Patent>  (118) 
nan

>  <Drug Type>  (118) 
7:Natural Product-derived

>  <Passes Rule of Five>  (118) 
False

>  <First In Class>  (118) 
False

>  <Chirality>  (118) 
Single Stereoisomer

>  <Prodrug>  (118) 
False

>  <Oral>  (118) 
False

>  <Parenteral>  (118) 
False

>  <Topical>  (118) 
False

>  <Black Box>  (118) 
False

>  <Availability Type>  (118) 
Unknown

>  <Withdrawn Year>  (118) 
nan

>  <Withdrawn Reason>  (118) 
nan

>  <Withdrawn Country>  (118) 
nan

>  <Withdrawn Class>  (118) 
nan

>  <SMILES>  (118) 
CCCCCCCCCCCCCCCCCCCCCCCCCC(=O)N[C@@H](CO[C@H]1O[C@H](CO)[C@H](O)[C@H](O)[C@H]1O)[C@H](O)[C@H](O)CCCCCCCCCCCCCC

>  <InChi Key>  (118) 
VQFKFAKEUMHBLV-BYSUZVQFSA-N

$$$$
CHEMBL1801250
     RDKit          2D

 29 33  0  0  0  0  0  0  0  0999 V2000
    7.8037  -13.5163    0.0000 O   0  0  0  0  0  0  0  0  0  0  0  0
    6.3037  -13.5163    0.0000 C   0  0  0  0  0  0  0  0  0  0  0  0
    5.5537  -14.8154    0.0000 N   0  0  0  0  0  0  0  0  0  0  0  0
    6.3037  -16.1144    0.0000 O   0  0  0  0  0  0  0  0  0  0  0  0
    5.5537  -12.2173    0.0000 C   0  0  0  0  0  0  0  0  0  0  0  0
    4.0537  -12.2173    0.0000 C   0  0  0  0  0  0  0  0  0  0  0  0
    3.3037  -10.9182    0.0000 N   0  0  0  0  0  0  0  0  0  0  0  0
    4.0537   -9.6192    0.0000 C   0  0  0  0  0  0  0  0  0  0  0  0
    3.3037   -8.3202    0.0000 N   0  0  0  0  0  0  0  0  0  0  0  0
    1.8119   -8.1634    0.0000 C   0  0  0  0  0  0  0  0  0  0  0  0
    1.5000   -6.6962    0.0000 C   0  0  0  0  0  0  0  0  0  0  0  0
    1.5000   -5.1962    0.0000 C   0  0  0  0  0  0  0  0  0  0  0  0
    0.7500   -3.8971    0.0000 N   0  0  0  0  0  0  0  0  0  0  0  0
    1.5000   -2.5981    0.0000 C   0  0  0  0  0  0  0  0  0  0  0  0
    0.7500   -1.2990    0.0000 C   0  0  0  0  0  0  0  0  0  0  0  0
    1.5000    0.0000    0.0000 C   0  0  0  0  0  0  0  0  0  0  0  0
    0.7500    1.2990    0.0000 C   0  0  0  0  0  0  0  0  0  0  0  0
   -0.7500    1.2990    0.0000 C   0  0  0  0  0  0  0  0  0  0  0  0
   -1.5000    2.5981    0.0000 C   0  0  0  0  0  0  0  0  0  0  0  0
   -3.0000    2.5981    0.0000 C   0  0  0  0  0  0  0  0  0  0  0  0
   -3.7500    3.8971    0.0000 F   0  0  0  0  0  0  0  0  0  0  0  0
   -3.7500    1.2990    0.0000 C   0  0  0  0  0  0  0  0  0  0  0  0
   -3.0000    0.0000    0.0000 C   0  0  0  0  0  0  0  0  0  0  0  0
   -1.5000    0.0000    0.0000 C   0  0  0  0  0  0  0  0  0  0  0  0
   -0.7500   -1.2990    0.0000 N   0  0  0  0  0  0  0  0  0  0  0  0
    2.7990   -5.9462    0.0000 C   0  0  0  0  0  0  0  0  0  0  0  0
    3.9138   -6.9498    0.0000 C   0  0  0  0  0  0  0  0  0  0  0  0
    5.5537   -9.6192    0.0000 N   0  0  0  0  0  0  0  0  0  0  0  0
    6.3037  -10.9182    0.0000 C   0  0  0  0  0  0  0  0  0  0  0  0
  1  2  1  0
  2  3  2  3
  3  4  1  0
  2  5  1  0
  5  6  2  0
  6  7  1  0
  7  8  2  0
  8  9  1  0
  9 10  1  0
 11 10  1  1
 11 12  1  0
 12 13  1  6
 13 14  1  0
 14 15  1  0
 15 16  2  0
 16 17  1  0
 17 18  2  0
 18 19  1  0
 19 20  2  0
 20 21  1  0
 20 22  1  0
 22 23  2  0
 23 24  1  0
 24 25  2  0
 12 26  1  0
 26 27  1  1
  8 28  1  0
 28 29  2  0
 29  5  1  0
 27  9  1  0
 26 11  1  0
 25 15  1  0
 24 18  1  0
M  END
>  <Synonyms>  (119) 
CHR-3996|NANATINOSTAT|VRX-3996

>  <Research Codes>  (119) 
CHR-3996|VRX-3996

>  <Phase>  (119) 
1

>  <Applicants>  (119) 
nan

>  <USAN Stem>  (119) 
'-stat'

>  <USAN Year>  (119) 
2018.0

>  <USAN Stem Definition>  (119) 
enzyme inhibitors: inhibitors of histone deacetylase

>  <USAN Stem Substem>  (119) 
'-stat(-stat (-inostat))'

>  <First Approval>  (119) 
nan

>  <ATC Codes>  (119) 
nan

>  <Level 4 ATC Codes>  (119) 
nan

>  <Level 3 ATC Codes>  (119) 
nan

>  <Level 2 ATC Codes>  (119) 
nan

>  <Level 1 ATC Codes>  (119) 
nan

>  <Indication Class>  (119) 
nan

>  <Patent>  (119) 
nan

>  <Drug Type>  (119) 
1:Synthetic Small Molecule

>  <Passes Rule of Five>  (119) 
True

>  <First In Class>  (119) 
False

>  <Chirality>  (119) 
Single Stereoisomer

>  <Prodrug>  (119) 
False

>  <Oral>  (119) 
False

>  <Parenteral>  (119) 
False

>  <Topical>  (119) 
False

>  <Black Box>  (119) 
False

>  <Availability Type>  (119) 
Unknown

>  <Withdrawn Year>  (119) 
nan

>  <Withdrawn Reason>  (119) 
nan

>  <Withdrawn Country>  (119) 
nan

>  <Withdrawn Class>  (119) 
nan

>  <SMILES>  (119) 
O=C(NO)c1cnc(N2C[C@H]3[C@H](NCc4ccc5cc(F)ccc5n4)[C@H]3C2)nc1

>  <InChi Key>  (119) 
QRGHOAATPOLDPF-VQFNDLOPSA-N

$$$$
CHEMBL260402
     RDKit          2D

 18 19  0  0  0  0  0  0  0  0999 V2000
    3.9583   -7.7795    0.0000 C   0  0  0  0  0  0  0  0  0  0  0  0
    4.4218   -6.3529    0.0000 O   0  0  0  0  0  0  0  0  0  0  0  0
    3.4182   -5.2382    0.0000 C   0  0  0  0  0  0  0  0  0  0  0  0
    1.9509   -5.5501    0.0000 O   0  0  0  0  0  0  0  0  0  0  0  0
    3.8817   -3.8116    0.0000 C   0  0  0  0  0  0  0  0  0  0  0  0
    5.3083   -3.3481    0.0000 C   0  0  0  0  0  0  0  0  0  0  0  0
    5.3083   -1.8481    0.0000 N   0  0  0  0  0  0  0  0  0  0  0  0
    3.8817   -1.3846    0.0000 C   0  0  0  0  0  0  0  0  0  0  0  0
    3.0000   -2.5981    0.0000 N   0  0  0  0  0  0  0  0  0  0  0  0
    1.5000   -2.5981    0.0000 C   0  0  0  0  0  0  0  0  0  0  0  0
    0.7500   -3.8971    0.0000 C   0  0  0  0  0  0  0  0  0  0  0  0
    0.7500   -1.2990    0.0000 C   0  0  0  0  0  0  0  0  0  0  0  0
    1.5000    0.0000    0.0000 C   0  0  0  0  0  0  0  0  0  0  0  0
    0.7500    1.2990    0.0000 C   0  0  0  0  0  0  0  0  0  0  0  0
   -0.7500    1.2990    0.0000 C   0  0  0  0  0  0  0  0  0  0  0  0
   -1.5000    2.5981    0.0000 I   0  0  0  0  0  0  0  0  0  0  0  0
   -1.5000    0.0000    0.0000 C   0  0  0  0  0  0  0  0  0  0  0  0
   -0.7500   -1.2990    0.0000 C   0  0  0  0  0  0  0  0  0  0  0  0
  1  2  1  0
  2  3  1  0
  3  4  2  0
  3  5  1  0
  5  6  2  0
  6  7  1  0
  7  8  2  0
  8  9  1  0
  9 10  1  0
 10 11  1  6
 10 12  1  0
 12 13  2  0
 13 14  1  0
 14 15  2  0
 15 16  1  0
 15 17  1  0
 17 18  2  0
  9  5  1  0
 18 12  1  0
M  END
>  <Synonyms>  (120) 
123I-IODOMETOMIDATE|IODOMETOMIDATE I-123, R-

>  <Research Codes>  (120) 
nan

>  <Phase>  (120) 
1

>  <Applicants>  (120) 
nan

>  <USAN Stem>  (120) 
'io-'

>  <USAN Year>  (120) 
nan

>  <USAN Stem Definition>  (120) 
iodine-containing contrast media

>  <USAN Stem Substem>  (120) 
'io-(io-)'

>  <First Approval>  (120) 
nan

>  <ATC Codes>  (120) 
nan

>  <Level 4 ATC Codes>  (120) 
nan

>  <Level 3 ATC Codes>  (120) 
nan

>  <Level 2 ATC Codes>  (120) 
nan

>  <Level 1 ATC Codes>  (120) 
nan

>  <Indication Class>  (120) 
nan

>  <Patent>  (120) 
nan

>  <Drug Type>  (120) 
1:Synthetic Small Molecule

>  <Passes Rule of Five>  (120) 
True

>  <First In Class>  (120) 
False

>  <Chirality>  (120) 
Single Stereoisomer

>  <Prodrug>  (120) 
False

>  <Oral>  (120) 
False

>  <Parenteral>  (120) 
False

>  <Topical>  (120) 
False

>  <Black Box>  (120) 
False

>  <Availability Type>  (120) 
Unknown

>  <Withdrawn Year>  (120) 
nan

>  <Withdrawn Reason>  (120) 
nan

>  <Withdrawn Country>  (120) 
nan

>  <Withdrawn Class>  (120) 
nan

>  <SMILES>  (120) 
COC(=O)c1cncn1[C@H](C)c1ccc(I)cc1

>  <InChi Key>  (120) 
KECBLXVYTIVCTG-SECBINFHSA-N

$$$$
CHEMBL473841
     RDKit          2D

 34 37  0  0  0  0  0  0  0  0999 V2000
   -3.0000  -10.3923    0.0000 C   0  0  0  0  0  0  0  0  0  0  0  0
   -1.5000  -10.3923    0.0000 N   0  0  0  0  0  0  0  0  0  0  0  0
   -0.7500   -9.0933    0.0000 C   0  0  0  0  0  0  0  0  0  0  0  0
   -1.5000   -7.7942    0.0000 C   0  0  0  0  0  0  0  0  0  0  0  0
   -3.0000   -7.7942    0.0000 O   0  0  0  0  0  0  0  0  0  0  0  0
   -0.7500   -6.4952    0.0000 N   0  0  0  0  0  0  0  0  0  0  0  0
   -1.5000   -5.1962    0.0000 C   0  0  0  0  0  0  0  0  0  0  0  0
   -3.0000   -5.1962    0.0000 C   0  0  0  0  0  0  0  0  0  0  0  0
   -3.7500   -3.8971    0.0000 C   0  0  0  0  0  0  0  0  0  0  0  0
   -5.2500   -3.8971    0.0000 C   0  0  0  0  0  0  0  0  0  0  0  0
   -6.0000   -5.1962    0.0000 C   0  0  0  0  0  0  0  0  0  0  0  0
   -5.2500   -6.4952    0.0000 C   0  0  0  0  0  0  0  0  0  0  0  0
   -6.0000   -7.7942    0.0000 N   0  0  0  0  0  4  0  0  0  0  0  0
   -7.5000   -7.7942    0.0000 O   0  0  0  0  0  0  0  0  0  0  0  0
   -5.2500   -9.0933    0.0000 O   0  0  0  0  0  1  0  0  0  0  0  0
   -3.7500   -6.4952    0.0000 C   0  0  0  0  0  0  0  0  0  0  0  0
   -0.7500   -3.8971    0.0000 C   0  0  0  0  0  0  0  0  0  0  0  0
    0.7500   -3.8971    0.0000 C   0  0  0  0  0  0  0  0  0  0  0  0
    1.5000   -2.5981    0.0000 C   0  0  0  0  0  0  0  0  0  0  0  0
    3.0000   -2.5981    0.0000 Cl  0  0  0  0  0  0  0  0  0  0  0  0
    0.7500   -1.2990    0.0000 C   0  0  0  0  0  0  0  0  0  0  0  0
    1.5000    0.0000    0.0000 C   0  0  0  0  0  0  0  0  0  0  0  0
    0.7500    1.2990    0.0000 C   0  0  0  0  0  0  0  0  0  0  0  0
   -0.7500    1.2990    0.0000 C   0  0  0  0  0  0  0  0  0  0  0  0
   -1.5000    0.0000    0.0000 N   0  0  0  0  0  0  0  0  0  0  0  0
   -0.7500   -1.2990    0.0000 C   0  0  0  0  0  0  0  0  0  0  0  0
   -1.5000   -2.5981    0.0000 C   0  0  0  0  0  0  0  0  0  0  0  0
   -3.0000   -2.5981    0.0000 O   0  0  0  0  0  0  0  0  0  0  0  0
   -0.7500  -11.6913    0.0000 C   0  0  0  0  0  0  0  0  0  0  0  0
   -1.5000  -12.9904    0.0000 C   0  0  0  0  0  0  0  0  0  0  0  0
   -0.7500  -14.2894    0.0000 C   0  0  0  0  0  0  0  0  0  0  0  0
    0.7500  -14.2894    0.0000 C   0  0  0  0  0  0  0  0  0  0  0  0
    1.5000  -12.9904    0.0000 C   0  0  0  0  0  0  0  0  0  0  0  0
    0.7500  -11.6913    0.0000 C   0  0  0  0  0  0  0  0  0  0  0  0
  1  2  1  0
  2  3  1  0
  3  4  1  0
  4  5  2  0
  4  6  1  0
  6  7  1  0
  7  8  1  0
  8  9  2  0
  9 10  1  0
 10 11  2  0
 11 12  1  0
 12 13  1  0
 13 14  2  0
 13 15  1  0
 12 16  2  0
  7 17  1  0
 17 18  2  0
 18 19  1  0
 19 20  1  0
 19 21  2  0
 21 22  1  0
 22 23  2  0
 23 24  1  0
 24 25  2  0
 25 26  1  0
 26 27  2  0
 27 28  1  0
  2 29  1  0
 29 30  2  0
 30 31  1  0
 31 32  2  0
 32 33  1  0
 33 34  2  0
 16  8  1  0
 27 17  1  0
 34 29  1  0
 26 21  1  0
M  CHG  2  13   1  15  -1
M  END
>  <Synonyms>  (121) 
AGG-523|PF-05212371|PF-5212371|WAY-266523

>  <Research Codes>  (121) 
PF-05212371|PF-5212371|WAY-266523

>  <Phase>  (121) 
1

>  <Applicants>  (121) 
nan

>  <USAN Stem>  (121) 
nan

>  <USAN Year>  (121) 
nan

>  <USAN Stem Definition>  (121) 
nan

>  <USAN Stem Substem>  (121) 
nan

>  <First Approval>  (121) 
nan

>  <ATC Codes>  (121) 
nan

>  <Level 4 ATC Codes>  (121) 
nan

>  <Level 3 ATC Codes>  (121) 
nan

>  <Level 2 ATC Codes>  (121) 
nan

>  <Level 1 ATC Codes>  (121) 
nan

>  <Indication Class>  (121) 
nan

>  <Patent>  (121) 
nan

>  <Drug Type>  (121) 
1:Synthetic Small Molecule

>  <Passes Rule of Five>  (121) 
True

>  <First In Class>  (121) 
False

>  <Chirality>  (121) 
Achiral Molecule

>  <Prodrug>  (121) 
False

>  <Oral>  (121) 
False

>  <Parenteral>  (121) 
False

>  <Topical>  (121) 
False

>  <Black Box>  (121) 
False

>  <Availability Type>  (121) 
Unknown

>  <Withdrawn Year>  (121) 
nan

>  <Withdrawn Reason>  (121) 
nan

>  <Withdrawn Country>  (121) 
nan

>  <Withdrawn Class>  (121) 
nan

>  <SMILES>  (121) 
CN(CC(=O)NC(c1cccc([N+](=O)[O-])c1)c1cc(Cl)c2cccnc2c1O)c1ccccc1

>  <InChi Key>  (121) 
CBUQIOYQSSZVDA-UHFFFAOYSA-N

$$$$
CHEMBL2180408
     RDKit          2D

 26 29  0  0  0  0  0  0  0  0999 V2000
   -7.9171    7.6411    0.0000 C   0  0  0  0  0  0  0  0  0  0  0  0
   -8.2289    6.1738    0.0000 O   0  0  0  0  0  0  0  0  0  0  0  0
   -7.1142    5.1701    0.0000 C   0  0  0  0  0  0  0  0  0  0  0  0
   -7.4261    3.7029    0.0000 C   0  0  0  0  0  0  0  0  0  0  0  0
   -6.3114    2.6992    0.0000 C   0  0  0  0  0  0  0  0  0  0  0  0
   -4.8848    3.1627    0.0000 C   0  0  0  0  0  0  0  0  0  0  0  0
   -3.7701    2.1590    0.0000 C   0  0  0  0  0  0  0  0  0  0  0  0
   -4.0819    0.6918    0.0000 C   0  0  0  0  0  0  0  0  0  0  0  0
   -2.9672   -0.3119    0.0000 C   0  0  0  0  0  0  0  0  0  0  0  0
   -3.1240   -1.8037    0.0000 C   0  0  0  0  0  0  0  0  0  0  0  0
   -4.4231   -2.5537    0.0000 C   0  0  0  0  0  0  0  0  0  0  0  0
   -1.7537   -2.4138    0.0000 N   0  0  0  0  0  0  0  0  0  0  0  0
   -0.7500   -1.2990    0.0000 C   0  0  0  0  0  0  0  0  0  0  0  0
    0.7500   -1.2990    0.0000 C   0  0  0  0  0  0  0  0  0  0  0  0
    1.5000   -2.5981    0.0000 N   0  0  0  0  0  0  0  0  0  0  0  0
    0.7500   -3.8971    0.0000 C   0  0  0  0  0  0  0  0  0  0  0  0
    1.5000   -5.1962    0.0000 C   0  0  0  0  0  0  0  0  0  0  0  0
    3.0000   -5.1962    0.0000 O   0  0  0  0  0  0  0  0  0  0  0  0
    3.7500   -3.8971    0.0000 C   0  0  0  0  0  0  0  0  0  0  0  0
    3.0000   -2.5981    0.0000 C   0  0  0  0  0  0  0  0  0  0  0  0
    1.5000    0.0000    0.0000 C   0  0  0  0  0  0  0  0  0  0  0  0
    0.7500    1.2990    0.0000 C   0  0  0  0  0  0  0  0  0  0  0  0
   -0.7500    1.2990    0.0000 N   0  0  0  0  0  0  0  0  0  0  0  0
   -1.5000    0.0000    0.0000 N   0  0  0  0  0  0  0  0  0  0  0  0
   -5.5085    0.2283    0.0000 C   0  0  0  0  0  0  0  0  0  0  0  0
   -6.6232    1.2320    0.0000 N   0  0  0  0  0  0  0  0  0  0  0  0
  1  2  1  0
  2  3  1  0
  3  4  1  0
  4  5  1  0
  5  6  2  0
  6  7  1  0
  7  8  2  0
  8  9  1  0
  9 10  2  0
 10 11  1  0
 10 12  1  0
 12 13  2  0
 13 14  1  0
 14 15  1  0
 15 16  1  0
 16 17  1  0
 17 18  1  0
 18 19  1  0
 19 20  1  0
 14 21  2  0
 21 22  1  0
 22 23  2  0
 23 24  1  0
  8 25  1  0
 25 26  2  0
 26  5  1  0
 24  9  1  0
 24 13  1  0
 20 15  1  0
M  END
>  <Synonyms>  (122) 
JNJ-42396302

>  <Research Codes>  (122) 
nan

>  <Phase>  (122) 
1

>  <Applicants>  (122) 
nan

>  <USAN Stem>  (122) 
nan

>  <USAN Year>  (122) 
nan

>  <USAN Stem Definition>  (122) 
nan

>  <USAN Stem Substem>  (122) 
nan

>  <First Approval>  (122) 
nan

>  <ATC Codes>  (122) 
nan

>  <Level 4 ATC Codes>  (122) 
nan

>  <Level 3 ATC Codes>  (122) 
nan

>  <Level 2 ATC Codes>  (122) 
nan

>  <Level 1 ATC Codes>  (122) 
nan

>  <Indication Class>  (122) 
nan

>  <Patent>  (122) 
nan

>  <Drug Type>  (122) 
1:Synthetic Small Molecule

>  <Passes Rule of Five>  (122) 
True

>  <First In Class>  (122) 
False

>  <Chirality>  (122) 
Achiral Molecule

>  <Prodrug>  (122) 
False

>  <Oral>  (122) 
False

>  <Parenteral>  (122) 
False

>  <Topical>  (122) 
False

>  <Black Box>  (122) 
False

>  <Availability Type>  (122) 
Unknown

>  <Withdrawn Year>  (122) 
nan

>  <Withdrawn Reason>  (122) 
nan

>  <Withdrawn Country>  (122) 
nan

>  <Withdrawn Class>  (122) 
nan

>  <SMILES>  (122) 
COCCc1ccc(-c2c(C)nc3c(N4CCOCC4)ccnn23)cn1

>  <InChi Key>  (122) 
BPLVDYJDAVYLRQ-UHFFFAOYSA-N

$$$$
CHEMBL203665
     RDKit          2D

 38 41  0  0  0  0  0  0  0  0999 V2000
   -3.8971  -10.3573    0.0000 C   0  0  0  0  0  0  0  0  0  0  0  0
   -2.5981   -9.6073    0.0000 C   0  0  0  0  0  0  0  0  0  0  0  0
   -1.2990  -10.3573    0.0000 C   0  0  0  0  0  0  0  0  0  0  0  0
   -2.5981   -8.1073    0.0000 C   0  0  0  0  0  0  0  0  0  0  0  0
   -1.2990   -7.3573    0.0000 C   0  0  0  0  0  0  0  0  0  0  0  0
   -1.2990   -5.8573    0.0000 N   0  0  0  0  0  0  0  0  0  0  0  0
    0.0000   -5.1073    0.0000 C   0  0  0  0  0  0  0  0  0  0  0  0
    1.2990   -5.8573    0.0000 O   0  0  0  0  0  0  0  0  0  0  0  0
    0.0000   -3.6073    0.0000 C   0  0  0  0  0  0  0  0  0  0  0  0
    1.2135   -2.7256    0.0000 C   0  0  0  0  0  0  0  0  0  0  0  0
    0.7500   -1.2990    0.0000 C   0  0  0  0  0  0  0  0  0  0  0  0
    1.5000    0.0000    0.0000 C   0  0  0  0  0  0  0  0  0  0  0  0
    0.7500    1.2990    0.0000 C   0  0  0  0  0  0  0  0  0  0  0  0
   -0.7500    1.2990    0.0000 C   0  0  0  0  0  0  0  0  0  0  0  0
   -1.5000    0.0000    0.0000 C   0  0  0  0  0  0  0  0  0  0  0  0
   -0.7500   -1.2990    0.0000 C   0  0  0  0  0  0  0  0  0  0  0  0
   -1.2135   -2.7256    0.0000 O   0  0  0  0  0  0  0  0  0  0  0  0
    0.0000   -8.1073    0.0000 C   0  0  0  0  0  0  0  0  0  0  0  0
    1.2990   -7.3573    0.0000 O   0  0  0  0  0  0  0  0  0  0  0  0
    0.0000   -9.6073    0.0000 N   0  0  0  0  0  0  0  0  0  0  0  0
    1.2990  -10.3573    0.0000 C   0  0  0  0  0  0  0  0  0  0  0  0
    2.5384   -9.5123    0.0000 C   0  0  0  0  0  0  0  0  0  0  0  0
    3.9718   -9.9545    0.0000 C   0  0  0  0  0  0  0  0  0  0  0  0
    4.5198  -11.3508    0.0000 C   0  0  0  0  0  0  0  0  0  0  0  0
    6.0156  -11.4629    0.0000 C   0  0  0  0  0  0  0  0  0  0  0  0
    3.7698  -12.6498    0.0000 N   0  0  0  0  0  0  0  0  0  0  0  0
    4.6147  -13.8892    0.0000 S   0  0  0  0  0  0  0  0  0  0  0  0
    5.8541  -13.0442    0.0000 O   0  0  0  0  0  0  0  0  0  0  0  0
    3.3754  -14.7341    0.0000 O   0  0  0  0  0  0  0  0  0  0  0  0
    5.4597  -15.1285    0.0000 C   0  0  0  0  0  0  0  0  0  0  0  0
    4.8089  -16.4800    0.0000 C   0  0  0  0  0  0  0  0  0  0  0  0
    5.6539  -17.7193    0.0000 C   0  0  0  0  0  0  0  0  0  0  0  0
    7.1497  -17.6072    0.0000 C   0  0  0  0  0  0  0  0  0  0  0  0
    7.8005  -16.2558    0.0000 C   0  0  0  0  0  0  0  0  0  0  0  0
    6.9555  -15.0164    0.0000 N   0  0  0  0  0  0  0  0  0  0  0  0
    2.2865  -12.8734    0.0000 C   0  0  0  0  0  0  0  0  0  0  0  0
    1.1869  -11.8531    0.0000 C   0  0  0  0  0  0  0  0  0  0  0  0
   -0.2094  -12.4011    0.0000 O   0  0  0  0  0  0  0  0  0  0  0  0
  1  2  1  0
  2  3  1  0
  2  4  1  0
  4  5  1  0
  5  6  1  0
  6  7  1  0
  7  8  2  0
  7  9  1  0
  9 10  2  0
 10 11  1  0
 11 12  2  0
 12 13  1  0
 13 14  2  0
 14 15  1  0
 15 16  2  0
 16 17  1  0
  5 18  1  0
 18 19  2  0
 18 20  1  0
 20 21  1  0
 21 22  1  0
 22 23  1  0
 23 24  1  0
 24 25  1  1
 24 26  1  0
 26 27  1  0
 27 28  2  0
 27 29  2  0
 27 30  1  0
 30 31  2  0
 31 32  1  0
 32 33  2  0
 33 34  1  0
 34 35  2  0
 26 36  1  0
 36 37  1  0
 37 38  2  0
 17  9  1  0
 37 21  1  0
 16 11  1  0
 35 30  1  0
M  END
>  <Synonyms>  (123) 
RELACATIB|SB-462795

>  <Research Codes>  (123) 
SB-462795

>  <Phase>  (123) 
1

>  <Applicants>  (123) 
nan

>  <USAN Stem>  (123) 
'-catib'

>  <USAN Year>  (123) 
2006.0

>  <USAN Stem Definition>  (123) 
cathespin inhibitors

>  <USAN Stem Substem>  (123) 
'-catib(-catib)'

>  <First Approval>  (123) 
nan

>  <ATC Codes>  (123) 
nan

>  <Level 4 ATC Codes>  (123) 
nan

>  <Level 3 ATC Codes>  (123) 
nan

>  <Level 2 ATC Codes>  (123) 
nan

>  <Level 1 ATC Codes>  (123) 
nan

>  <Indication Class>  (123) 
nan

>  <Patent>  (123) 
nan

>  <Drug Type>  (123) 
1:Synthetic Small Molecule

>  <Passes Rule of Five>  (123) 
False

>  <First In Class>  (123) 
False

>  <Chirality>  (123) 
Single Stereoisomer

>  <Prodrug>  (123) 
False

>  <Oral>  (123) 
False

>  <Parenteral>  (123) 
False

>  <Topical>  (123) 
False

>  <Black Box>  (123) 
False

>  <Availability Type>  (123) 
Unknown

>  <Withdrawn Year>  (123) 
nan

>  <Withdrawn Reason>  (123) 
nan

>  <Withdrawn Country>  (123) 
nan

>  <Withdrawn Class>  (123) 
nan

>  <SMILES>  (123) 
CC(C)C[C@H](NC(=O)c1cc2ccccc2o1)C(=O)N[C@H]1CC[C@@H](C)N(S(=O)(=O)c2ccccn2)CC1=O

>  <InChi Key>  (123) 
BWYBBMQLUKXECQ-KMFTYDHNSA-N

$$$$
CHEMBL1672635
     RDKit          2D

 28 30  0  0  0  0  0  0  0  0999 V2000
    3.0000    0.0000    0.0000 C   0  0  0  0  0  0  0  0  0  0  0  0
    1.5000    0.0000    0.0000 C   0  0  0  0  0  0  0  0  0  0  0  0
    0.7500   -1.2990    0.0000 C   0  0  0  0  0  0  0  0  0  0  0  0
    1.5000   -2.5981    0.0000 N   0  0  0  0  0  0  0  0  0  0  0  0
    0.7500   -3.8971    0.0000 C   0  0  0  0  0  0  0  0  0  0  0  0
    1.5000   -5.1962    0.0000 C   0  0  0  0  0  0  0  0  0  0  0  0
    2.9918   -5.3529    0.0000 N   0  0  0  0  0  0  0  0  0  0  0  0
    3.3037   -6.8202    0.0000 N   0  0  0  0  0  0  0  0  0  0  0  0
    2.0046   -7.5702    0.0000 C   0  0  0  0  0  0  0  0  0  0  0  0
    1.8478   -9.0619    0.0000 C   0  0  0  0  0  0  0  0  0  0  0  0
    0.4775   -9.6721    0.0000 C   0  0  0  0  0  0  0  0  0  0  0  0
    0.3207  -11.1638    0.0000 C   0  0  0  0  0  0  0  0  0  0  0  0
    1.5342  -12.0455    0.0000 C   0  0  0  0  0  0  0  0  0  0  0  0
    1.3774  -13.5373    0.0000 C   0  0  0  0  0  0  0  0  0  0  0  0
    1.2206  -15.0291    0.0000 N   0  0  0  0  0  0  0  0  0  0  0  0
    2.9046  -11.4354    0.0000 C   0  0  0  0  0  0  0  0  0  0  0  0
    3.0613   -9.9436    0.0000 C   0  0  0  0  0  0  0  0  0  0  0  0
    0.8899   -6.5665    0.0000 O   0  0  0  0  0  0  0  0  0  0  0  0
   -0.7500   -3.8971    0.0000 C   0  0  0  0  0  0  0  0  0  0  0  0
   -1.5000   -5.1962    0.0000 C   0  0  0  0  0  0  0  0  0  0  0  0
   -1.5000   -2.5981    0.0000 O   0  0  0  0  0  0  0  0  0  0  0  0
   -0.7500   -1.2990    0.0000 C   0  0  0  0  0  0  0  0  0  0  0  0
   -1.5000    0.0000    0.0000 C   0  0  0  0  0  0  0  0  0  0  0  0
   -0.7500    1.2990    0.0000 C   0  0  0  0  0  0  0  0  0  0  0  0
   -1.5000    2.5981    0.0000 C   0  0  0  0  0  0  0  0  0  0  0  0
   -2.2500    3.8971    0.0000 N   0  0  0  0  0  0  0  0  0  0  0  0
    0.7500    1.2990    0.0000 C   0  0  0  0  0  0  0  0  0  0  0  0
    1.5000    2.5981    0.0000 Cl  0  0  0  0  0  0  0  0  0  0  0  0
  1  2  1  0
  2  3  2  0
  3  4  1  0
  4  5  1  0
  5  6  1  0
  6  7  2  0
  7  8  1  0
  8  9  2  0
  9 10  1  0
 10 11  2  0
 11 12  1  0
 12 13  2  0
 13 14  1  0
 14 15  3  0
 13 16  1  0
 16 17  2  0
  9 18  1  0
  5 19  1  0
 19 20  1  0
 19 21  1  0
  3 22  1  0
 22 23  2  0
 23 24  1  0
 24 25  1  0
 25 26  3  0
 24 27  2  0
 27 28  1  0
 27  2  1  0
 18  6  1  0
 17 10  1  0
M  END
>  <Synonyms>  (124) 
RAD-140|RAD140

>  <Research Codes>  (124) 
RAD-140|RAD140

>  <Phase>  (124) 
1

>  <Applicants>  (124) 
nan

>  <USAN Stem>  (124) 
nan

>  <USAN Year>  (124) 
nan

>  <USAN Stem Definition>  (124) 
nan

>  <USAN Stem Substem>  (124) 
nan

>  <First Approval>  (124) 
nan

>  <ATC Codes>  (124) 
nan

>  <Level 4 ATC Codes>  (124) 
nan

>  <Level 3 ATC Codes>  (124) 
nan

>  <Level 2 ATC Codes>  (124) 
nan

>  <Level 1 ATC Codes>  (124) 
nan

>  <Indication Class>  (124) 
nan

>  <Patent>  (124) 
nan

>  <Drug Type>  (124) 
1:Synthetic Small Molecule

>  <Passes Rule of Five>  (124) 
True

>  <First In Class>  (124) 
False

>  <Chirality>  (124) 
Single Stereoisomer

>  <Prodrug>  (124) 
False

>  <Oral>  (124) 
False

>  <Parenteral>  (124) 
False

>  <Topical>  (124) 
False

>  <Black Box>  (124) 
False

>  <Availability Type>  (124) 
Unknown

>  <Withdrawn Year>  (124) 
nan

>  <Withdrawn Reason>  (124) 
nan

>  <Withdrawn Country>  (124) 
nan

>  <Withdrawn Class>  (124) 
nan

>  <SMILES>  (124) 
Cc1c(N[C@@H](c2nnc(-c3ccc(C#N)cc3)o2)[C@H](C)O)ccc(C#N)c1Cl

>  <InChi Key>  (124) 
XMBUPPIEVAFYHO-UHFFFAOYSA-N

$$$$
CHEMBL2104819
     RDKit          2D

 26 28  0  0  0  0  0  0  0  0999 V2000
   -0.0000   -5.1962    0.0000 N   0  0  0  0  0  0  0  0  0  0  0  0
    0.7500   -3.8971    0.0000 C   0  0  0  0  0  0  0  0  0  0  0  0
    1.5000   -2.5981    0.0000 C   0  0  0  0  0  0  0  0  0  0  0  0
    0.7500   -1.2990    0.0000 C   0  0  0  0  0  0  0  0  0  0  0  0
    1.5000    0.0000    0.0000 C   0  0  0  0  0  0  0  0  0  0  0  0
    0.7500    1.2990    0.0000 C   0  0  0  0  0  0  0  0  0  0  0  0
   -0.7500    1.2990    0.0000 C   0  0  0  0  0  0  0  0  0  0  0  0
   -1.5000    2.5981    0.0000 F   0  0  0  0  0  0  0  0  0  0  0  0
   -1.5000    0.0000    0.0000 C   0  0  0  0  0  0  0  0  0  0  0  0
   -0.7500   -1.2990    0.0000 C   0  0  0  0  0  0  0  0  0  0  0  0
    3.0000   -2.5981    0.0000 C   0  0  0  0  0  0  0  0  0  0  0  0
    3.7500   -3.8971    0.0000 C   0  0  0  0  0  0  0  0  0  0  0  0
    3.0000   -5.1962    0.0000 Cl  0  0  0  0  0  0  0  0  0  0  0  0
    5.2500   -3.8971    0.0000 C   0  0  0  0  0  0  0  0  0  0  0  0
    6.0000   -2.5981    0.0000 C   0  0  0  0  0  0  0  0  0  0  0  0
    7.5000   -2.5981    0.0000 N   0  0  0  0  0  0  0  0  0  0  0  0
    8.2500   -3.8971    0.0000 N   0  0  0  0  0  0  0  0  0  0  0  0
    9.7500   -3.8971    0.0000 C   0  0  0  0  0  0  0  0  0  0  0  0
   10.5000   -2.5981    0.0000 C   0  0  0  0  0  0  0  0  0  0  0  0
   12.0000   -2.5981    0.0000 O   0  0  0  0  0  0  0  0  0  0  0  0
    9.7500   -1.2990    0.0000 N   0  0  0  0  0  0  0  0  0  0  0  0
    8.2500   -1.2990    0.0000 C   0  0  0  0  0  0  0  0  0  0  0  0
    7.5000   -0.0000    0.0000 O   0  0  0  0  0  0  0  0  0  0  0  0
    5.2500   -1.2990    0.0000 C   0  0  0  0  0  0  0  0  0  0  0  0
    3.7500   -1.2990    0.0000 C   0  0  0  0  0  0  0  0  0  0  0  0
    3.0000   -0.0000    0.0000 Cl  0  0  0  0  0  0  0  0  0  0  0  0
  1  2  3  0
  2  3  1  0
  3  4  1  0
  4  5  2  0
  5  6  1  0
  6  7  2  0
  7  8  1  0
  7  9  1  0
  9 10  2  0
  3 11  1  0
 11 12  2  0
 12 13  1  0
 12 14  1  0
 14 15  2  0
 15 16  1  0
 16 17  1  0
 17 18  2  0
 18 19  1  0
 19 20  2  0
 19 21  1  0
 21 22  1  0
 22 23  2  0
 15 24  1  0
 24 25  2  0
 25 26  1  0
 10  4  1  0
 25 11  1  0
 22 16  1  0
M  END
>  <Synonyms>  (125) 
LETRAZURIL

>  <Research Codes>  (125) 
nan

>  <Phase>  (125) 
1

>  <Applicants>  (125) 
nan

>  <USAN Stem>  (125) 
nan

>  <USAN Year>  (125) 
nan

>  <USAN Stem Definition>  (125) 
nan

>  <USAN Stem Substem>  (125) 
nan

>  <First Approval>  (125) 
nan

>  <ATC Codes>  (125) 
nan

>  <Level 4 ATC Codes>  (125) 
nan

>  <Level 3 ATC Codes>  (125) 
nan

>  <Level 2 ATC Codes>  (125) 
nan

>  <Level 1 ATC Codes>  (125) 
nan

>  <Indication Class>  (125) 
nan

>  <Patent>  (125) 
nan

>  <Drug Type>  (125) 
1:Synthetic Small Molecule

>  <Passes Rule of Five>  (125) 
True

>  <First In Class>  (125) 
False

>  <Chirality>  (125) 
Racemic Mixture

>  <Prodrug>  (125) 
False

>  <Oral>  (125) 
False

>  <Parenteral>  (125) 
False

>  <Topical>  (125) 
False

>  <Black Box>  (125) 
False

>  <Availability Type>  (125) 
Unknown

>  <Withdrawn Year>  (125) 
nan

>  <Withdrawn Reason>  (125) 
nan

>  <Withdrawn Country>  (125) 
nan

>  <Withdrawn Class>  (125) 
nan

>  <SMILES>  (125) 
N#CC(c1ccc(F)cc1)c1c(Cl)cc(-n2ncc(=O)[nH]c2=O)cc1Cl

>  <InChi Key>  (125) 
XQKYUBTUOHHNDV-UHFFFAOYSA-N

$$$$
CHEMBL2106124
     RDKit          2D

 10  9  0  0  0  0  0  0  0  0999 V2000
   -3.3481    1.2990    0.0000 O   0  0  0  0  0  0  0  0  0  0  0  0
   -2.5981    0.0000    0.0000 P   0  0  0  0  0  7  0  0  0  0  0  0
   -1.8481   -1.2990    0.0000 O   0  0  0  0  0  0  0  0  0  0  0  0
   -3.8971   -0.7500    0.0000 O   0  0  0  0  0  0  0  0  0  0  0  0
   -1.2990    0.7500    0.0000 O   0  0  0  0  0  0  0  0  0  0  0  0
    0.0000    0.0000    0.0000 C   0  0  0  0  0  0  0  0  0  0  0  0
    1.2990    0.7500    0.0000 C   0  0  0  0  0  0  0  0  0  0  0  0
    1.2990    2.2500    0.0000 O   0  0  0  0  0  0  0  0  0  0  0  0
    2.5981   -0.0000    0.0000 C   0  0  0  0  0  0  0  0  0  0  0  0
    3.8971    0.7500    0.0000 O   0  0  0  0  0  0  0  0  0  0  0  0
  1  2  2  0
  2  3  2  0
  2  4  1  0
  2  5  1  0
  5  6  1  0
  6  7  1  0
  7  8  1  0
  7  9  1  0
  9 10  1  0
M  END
>  <Synonyms>  (126) 
CALCIUM GLYCERINOPHOSPHATE|CALCIUM GLYCEROPHOSPHATE

>  <Research Codes>  (126) 
nan

>  <Phase>  (126) 
1

>  <Applicants>  (126) 
nan

>  <USAN Stem>  (126) 
nan

>  <USAN Year>  (126) 
nan

>  <USAN Stem Definition>  (126) 
nan

>  <USAN Stem Substem>  (126) 
nan

>  <First Approval>  (126) 
nan

>  <ATC Codes>  (126) 
nan

>  <Level 4 ATC Codes>  (126) 
nan

>  <Level 3 ATC Codes>  (126) 
nan

>  <Level 2 ATC Codes>  (126) 
nan

>  <Level 1 ATC Codes>  (126) 
nan

>  <Indication Class>  (126) 
nan

>  <Patent>  (126) 
nan

>  <Drug Type>  (126) 
1:Synthetic Small Molecule

>  <Passes Rule of Five>  (126) 
False

>  <First In Class>  (126) 
False

>  <Chirality>  (126) 
Unknown

>  <Prodrug>  (126) 
False

>  <Oral>  (126) 
False

>  <Parenteral>  (126) 
False

>  <Topical>  (126) 
False

>  <Black Box>  (126) 
False

>  <Availability Type>  (126) 
Unknown

>  <Withdrawn Year>  (126) 
nan

>  <Withdrawn Reason>  (126) 
nan

>  <Withdrawn Country>  (126) 
nan

>  <Withdrawn Class>  (126) 
nan

>  <SMILES>  (126) 
O=P([O-])([O-])OCC(O)CO.[Ca+2]

>  <InChi Key>  (126) 
YWEWIDNBAWSDFZ-UHFFFAOYSA-N

$$$$
CHEMBL2103821
     RDKit          2D

 16 17  0  0  0  0  0  0  0  0999 V2000
    3.0000    0.0000    0.0000 O   0  0  0  0  0  0  0  0  0  0  0  0
    1.5000    0.0000    0.0000 C   0  0  0  0  0  0  0  0  0  0  0  0
    0.7500   -1.2990    0.0000 N   0  0  0  0  0  0  0  0  0  0  0  0
   -0.7500   -1.2990    0.0000 C   0  0  0  0  0  0  0  0  0  0  0  0
   -1.5000    0.0000    0.0000 C   0  0  0  0  0  0  0  0  0  0  0  0
   -3.0000    0.0000    0.0000 I   0  0  0  0  0  0  0  0  0  0  0  0
   -0.7500    1.2990    0.0000 C   0  0  0  0  0  0  0  0  0  0  0  0
    0.7500    1.2990    0.0000 N   0  0  0  0  0  0  0  0  0  0  0  0
    1.5000    2.5981    0.0000 C   0  0  0  0  0  0  0  0  0  0  0  0
    0.8899    3.9684    0.0000 C   0  0  0  0  0  0  0  0  0  0  0  0
    2.0046    4.9721    0.0000 C   0  0  0  0  0  0  0  0  0  0  0  0
    1.8478    6.4639    0.0000 O   0  0  0  0  0  0  0  0  0  0  0  0
    3.3037    4.2221    0.0000 C   0  0  0  0  0  0  0  0  0  0  0  0
    4.6740    4.8322    0.0000 C   0  0  0  0  0  0  0  0  0  0  0  0
    5.8875    3.9505    0.0000 O   0  0  0  0  0  0  0  0  0  0  0  0
    2.9918    2.7549    0.0000 O   0  0  0  0  0  0  0  0  0  0  0  0
  1  2  2  0
  2  3  1  0
  3  4  2  0
  4  5  1  0
  5  6  1  0
  5  7  2  0
  7  8  1  0
  9  8  1  1
  9 10  1  0
 10 11  1  0
 11 12  1  6
 11 13  1  0
 13 14  1  1
 14 15  1  0
 13 16  1  0
  8  2  1  0
 16  9  1  0
M  END
>  <Synonyms>  (127) 
IPD-R|IPDR|NSC-726188|ROPIDOXURIDINE

>  <Research Codes>  (127) 
IPD-R|IPDR|NSC-726188

>  <Phase>  (127) 
1

>  <Applicants>  (127) 
nan

>  <USAN Stem>  (127) 
'-uridine'

>  <USAN Year>  (127) 
2007.0

>  <USAN Stem Definition>  (127) 
antivirals, antineoplastics (uridine derivatives)

>  <USAN Stem Substem>  (127) 
'-uridine(-uridine)'

>  <First Approval>  (127) 
nan

>  <ATC Codes>  (127) 
nan

>  <Level 4 ATC Codes>  (127) 
nan

>  <Level 3 ATC Codes>  (127) 
nan

>  <Level 2 ATC Codes>  (127) 
nan

>  <Level 1 ATC Codes>  (127) 
nan

>  <Indication Class>  (127) 
nan

>  <Patent>  (127) 
nan

>  <Drug Type>  (127) 
1:Synthetic Small Molecule

>  <Passes Rule of Five>  (127) 
True

>  <First In Class>  (127) 
False

>  <Chirality>  (127) 
Single Stereoisomer

>  <Prodrug>  (127) 
False

>  <Oral>  (127) 
False

>  <Parenteral>  (127) 
False

>  <Topical>  (127) 
False

>  <Black Box>  (127) 
False

>  <Availability Type>  (127) 
Unknown

>  <Withdrawn Year>  (127) 
nan

>  <Withdrawn Reason>  (127) 
nan

>  <Withdrawn Country>  (127) 
nan

>  <Withdrawn Class>  (127) 
nan

>  <SMILES>  (127) 
O=c1ncc(I)cn1[C@H]1C[C@H](O)[C@@H](CO)O1

>  <InChi Key>  (127) 
XIJXHOVKJAXCGJ-XLPZGREQSA-N

$$$$
CHEMBL2111095
     RDKit          2D

 29 30  0  0  0  0  0  0  0  0999 V2000
    9.7500   -3.8971    0.0000 C   0  0  0  0  0  0  0  0  0  0  0  0
    8.2500   -3.8971    0.0000 C   0  0  0  0  0  0  0  0  0  0  0  0
    7.5000   -2.5981    0.0000 N   0  0  0  0  0  0  0  0  0  0  0  0
    8.2500   -1.2990    0.0000 C   0  0  0  0  0  0  0  0  0  0  0  0
    9.7500   -1.2990    0.0000 C   0  0  0  0  0  0  0  0  0  0  0  0
    6.0000   -2.5981    0.0000 C   0  0  0  0  0  0  0  0  0  0  0  0
    5.2500   -1.2990    0.0000 C   0  0  0  0  0  0  0  0  0  0  0  0
    3.7500   -1.2990    0.0000 N   0  0  0  0  0  0  0  0  0  0  0  0
    3.0000    0.0000    0.0000 C   0  0  0  0  0  0  0  0  0  0  0  0
    3.7500    1.2990    0.0000 O   0  0  0  0  0  0  0  0  0  0  0  0
    1.5000    0.0000    0.0000 C   0  0  0  0  0  0  0  0  0  0  0  0
    0.7500   -1.2990    0.0000 C   0  0  0  0  0  0  0  0  0  0  0  0
   -0.7500   -1.2990    0.0000 C   0  0  0  0  0  0  0  0  0  0  0  0
   -1.5000   -2.5981    0.0000 I   0  0  0  0  0  0  0  0  0  0  0  0
   -1.5000    0.0000    0.0000 C   0  0  0  0  0  0  0  0  0  0  0  0
   -3.0000    0.0000    0.0000 N   0  0  0  0  0  0  0  0  0  0  0  0
   -3.7500    1.2990    0.0000 C   0  0  0  0  0  0  0  0  0  0  0  0
   -3.0000    2.5981    0.0000 O   0  0  0  0  0  0  0  0  0  0  0  0
   -5.2500    1.2990    0.0000 C   0  0  0  0  0  0  0  0  0  0  0  0
   -6.0000    2.5981    0.0000 C   0  0  0  0  0  0  0  0  0  0  0  0
   -7.5000    2.5981    0.0000 C   0  0  0  0  0  0  0  0  0  0  0  0
   -8.2500    1.2990    0.0000 C   0  0  0  0  0  0  0  0  0  0  0  0
   -9.7500    1.2990    0.0000 F   0  0  0  0  0  0  0  0  0  0  0  0
   -7.5000    0.0000    0.0000 C   0  0  0  0  0  0  0  0  0  0  0  0
   -6.0000    0.0000    0.0000 C   0  0  0  0  0  0  0  0  0  0  0  0
   -0.7500    1.2990    0.0000 C   0  0  0  0  0  0  0  0  0  0  0  0
    0.7500    1.2990    0.0000 C   0  0  0  0  0  0  0  0  0  0  0  0
    1.5000    2.5981    0.0000 O   0  0  0  0  0  0  0  0  0  0  0  0
    0.7500    3.8971    0.0000 C   0  0  0  0  0  0  0  0  0  0  0  0
  1  2  1  0
  2  3  1  0
  3  4  1  0
  4  5  1  0
  3  6  1  0
  6  7  1  0
  7  8  1  0
  8  9  1  0
  9 10  2  0
  9 11  1  0
 11 12  2  0
 12 13  1  0
 13 14  1  0
 13 15  2  0
 15 16  1  0
 16 17  1  0
 17 18  2  0
 17 19  1  0
 19 20  2  0
 20 21  1  0
 21 22  2  0
 22 23  1  0
 22 24  1  0
 24 25  2  0
 15 26  1  0
 26 27  2  0
 27 28  1  0
 28 29  1  0
 27 11  1  0
 25 19  1  0
M  END
>  <Synonyms>  (128) 
nan

>  <Research Codes>  (128) 
nan

>  <Phase>  (128) 
1

>  <Applicants>  (128) 
nan

>  <USAN Stem>  (128) 
'io-'

>  <USAN Year>  (128) 
2009.0

>  <USAN Stem Definition>  (128) 
iodine-containing contrast media

>  <USAN Stem Substem>  (128) 
'io-(io-)'

>  <First Approval>  (128) 
nan

>  <ATC Codes>  (128) 
nan

>  <Level 4 ATC Codes>  (128) 
nan

>  <Level 3 ATC Codes>  (128) 
nan

>  <Level 2 ATC Codes>  (128) 
nan

>  <Level 1 ATC Codes>  (128) 
nan

>  <Indication Class>  (128) 
nan

>  <Patent>  (128) 
nan

>  <Drug Type>  (128) 
1:Synthetic Small Molecule

>  <Passes Rule of Five>  (128) 
False

>  <First In Class>  (128) 
False

>  <Chirality>  (128) 
Achiral Molecule

>  <Prodrug>  (128) 
False

>  <Oral>  (128) 
False

>  <Parenteral>  (128) 
False

>  <Topical>  (128) 
False

>  <Black Box>  (128) 
False

>  <Availability Type>  (128) 
Unknown

>  <Withdrawn Year>  (128) 
nan

>  <Withdrawn Reason>  (128) 
nan

>  <Withdrawn Country>  (128) 
nan

>  <Withdrawn Class>  (128) 
nan

>  <SMILES>  (128) 
CCN(CC)CCNC(=O)c1cc(I)c(NC(=O)c2ccc(F)cc2)cc1OC

>  <InChi Key>  (128) 
UPRRZQGAQRAODM-UHFFFAOYSA-N

$$$$
CHEMBL2010872
     RDKit          2D

 36 42  0  0  0  0  0  0  0  0999 V2000
    5.1814   -2.6490    0.0000 C   0  0  0  0  0  0  0  0  0  0  0  0
    3.7548   -2.1855    0.0000 C   0  0  0  0  0  0  0  0  0  0  0  0
    3.4430   -0.7182    0.0000 C   0  0  0  0  0  0  0  0  0  0  0  0
    2.6401   -3.1891    0.0000 C   0  0  0  0  0  0  0  0  0  0  0  0
    1.2135   -2.7256    0.0000 N   0  0  0  0  0  0  0  0  0  0  0  0
    0.7500   -1.2990    0.0000 C   0  0  0  0  0  0  0  0  0  0  0  0
    1.5000    0.0000    0.0000 C   0  0  0  0  0  0  0  0  0  0  0  0
    0.7500    1.2990    0.0000 C   0  0  0  0  0  0  0  0  0  0  0  0
   -0.7500    1.2990    0.0000 C   0  0  0  0  0  0  0  0  0  0  0  0
   -1.5000    2.5981    0.0000 N   0  0  0  0  0  0  0  0  0  0  0  0
   -0.7500    3.8971    0.0000 C   0  0  0  0  0  0  0  0  0  0  0  0
    0.7500    3.8971    0.0000 N   0  0  0  0  0  0  0  0  0  0  0  0
    1.5000    5.1962    0.0000 C   0  0  0  0  0  0  0  0  0  0  0  0
    0.7500    6.4952    0.0000 C   0  0  0  0  0  0  0  0  0  0  0  0
   -0.7500    6.4952    0.0000 C   0  0  0  0  0  0  0  0  0  0  0  0
   -1.5000    5.1962    0.0000 N   0  0  0  0  0  0  0  0  0  0  0  0
   -1.5000    0.0000    0.0000 C   0  0  0  0  0  0  0  0  0  0  0  0
   -0.7500   -1.2990    0.0000 C   0  0  0  0  0  0  0  0  0  0  0  0
   -1.2135   -2.7256    0.0000 C   0  0  0  0  0  0  0  0  0  0  0  0
   -2.5838   -3.3357    0.0000 C   0  0  0  0  0  0  0  0  0  0  0  0
   -2.7406   -4.8275    0.0000 C   0  0  0  0  0  0  0  0  0  0  0  0
   -1.5271   -5.7092    0.0000 C   0  0  0  0  0  0  0  0  0  0  0  0
   -0.1568   -5.0991    0.0000 C   0  0  0  0  0  0  0  0  0  0  0  0
   -0.0000   -3.6073    0.0000 C   0  0  0  0  0  0  0  0  0  0  0  0
    1.0567   -5.9808    0.0000 C   0  0  0  0  0  0  0  0  0  0  0  0
    0.8999   -7.4725    0.0000 C   0  0  0  0  0  0  0  0  0  0  0  0
   -0.4704   -8.0826    0.0000 C   0  0  0  0  0  0  0  0  0  0  0  0
   -0.9339   -9.5092    0.0000 N   0  0  0  0  0  0  0  0  0  0  0  0
   -2.4339   -9.5092    0.0000 N   0  0  0  0  0  0  0  0  0  0  0  0
   -3.3156  -10.7228    0.0000 C   0  0  0  0  0  0  0  0  0  0  0  0
   -2.8974   -8.0826    0.0000 C   0  0  0  0  0  0  0  0  0  0  0  0
   -1.6839   -7.2010    0.0000 C   0  0  0  0  0  0  0  0  0  0  0  0
   -4.2079   -5.1394    0.0000 C   0  0  0  0  0  0  0  0  0  0  0  0
   -4.8180   -6.5097    0.0000 O   0  0  0  0  0  0  0  0  0  0  0  0
   -4.9579   -3.8403    0.0000 N   0  0  0  0  0  0  0  0  0  0  0  0
   -3.9542   -2.7256    0.0000 C   0  0  0  0  0  0  0  0  0  0  0  0
  1  2  1  0
  2  3  1  0
  2  4  1  0
  4  5  1  0
  5  6  1  0
  6  7  2  0
  7  8  1  0
  8  9  2  0
  9 10  1  0
 10 11  2  3
 11 12  1  0
 12 13  1  0
 13 14  2  0
 14 15  1  0
 15 16  2  0
  9 17  1  0
 17 18  2  0
 18 19  1  0
 19 20  2  0
 20 21  1  0
 21 22  2  0
 22 23  1  0
 23 24  2  0
 23 25  1  0
 25 26  1  0
 26 27  1  0
 27 28  2  0
 28 29  1  0
 29 30  1  0
 29 31  1  0
 31 32  2  0
 21 33  1  0
 33 34  2  0
 33 35  1  0
 35 36  1  0
 24  5  1  0
 32 27  1  0
 18  6  1  0
 24 19  1  0
 16 11  1  0
 36 20  1  0
 32 22  1  0
M  END
>  <Synonyms>  (129) 
BOL-303213X|CEP-11981

>  <Research Codes>  (129) 
BOL-303213X|CEP-11981

>  <Phase>  (129) 
1

>  <Applicants>  (129) 
nan

>  <USAN Stem>  (129) 
nan

>  <USAN Year>  (129) 
nan

>  <USAN Stem Definition>  (129) 
nan

>  <USAN Stem Substem>  (129) 
nan

>  <First Approval>  (129) 
nan

>  <ATC Codes>  (129) 
nan

>  <Level 4 ATC Codes>  (129) 
nan

>  <Level 3 ATC Codes>  (129) 
nan

>  <Level 2 ATC Codes>  (129) 
nan

>  <Level 1 ATC Codes>  (129) 
nan

>  <Indication Class>  (129) 
nan

>  <Patent>  (129) 
nan

>  <Drug Type>  (129) 
1:Synthetic Small Molecule

>  <Passes Rule of Five>  (129) 
True

>  <First In Class>  (129) 
False

>  <Chirality>  (129) 
Achiral Molecule

>  <Prodrug>  (129) 
False

>  <Oral>  (129) 
False

>  <Parenteral>  (129) 
False

>  <Topical>  (129) 
False

>  <Black Box>  (129) 
False

>  <Availability Type>  (129) 
Unknown

>  <Withdrawn Year>  (129) 
nan

>  <Withdrawn Reason>  (129) 
nan

>  <Withdrawn Country>  (129) 
nan

>  <Withdrawn Class>  (129) 
nan

>  <SMILES>  (129) 
CC(C)Cn1c2ccc(Nc3ncccn3)cc2c2c3c(c4c(c21)CCc1nn(C)cc1-4)C(=O)NC3

>  <InChi Key>  (129) 
AEULIVPVIDOLIN-UHFFFAOYSA-N

$$$$
CHEMBL3393588
     RDKit          2D

 28 32  0  0  0  0  0  0  0  0999 V2000
   -4.1655   -1.6766    0.0000 O   0  0  0  0  0  0  0  0  0  0  0  0
   -3.8536   -3.1438    0.0000 C   0  0  0  0  0  0  0  0  0  0  0  0
   -4.9684   -4.1475    0.0000 C   0  0  0  0  0  0  0  0  0  0  0  0
   -6.3949   -3.6839    0.0000 C   0  0  0  0  0  0  0  0  0  0  0  0
   -7.5097   -4.6876    0.0000 C   0  0  0  0  0  0  0  0  0  0  0  0
   -7.1978   -6.1549    0.0000 C   0  0  0  0  0  0  0  0  0  0  0  0
   -5.7712   -6.6184    0.0000 N   0  0  0  0  0  0  0  0  0  0  0  0
   -4.6565   -5.6147    0.0000 C   0  0  0  0  0  0  0  0  0  0  0  0
   -2.4271   -3.6073    0.0000 N   0  0  0  0  0  0  0  0  0  0  0  0
   -1.9635   -5.0339    0.0000 C   0  0  0  0  0  0  0  0  0  0  0  0
   -0.4635   -5.0339    0.0000 C   0  0  0  0  0  0  0  0  0  0  0  0
    0.0000   -3.6073    0.0000 N   0  0  0  0  0  0  0  0  0  0  0  0
    1.2135   -2.7256    0.0000 C   0  0  0  0  0  0  0  0  0  0  0  0
    2.6401   -3.1891    0.0000 O   0  0  0  0  0  0  0  0  0  0  0  0
    0.7500   -1.2990    0.0000 C   0  0  0  0  0  0  0  0  0  0  0  0
    1.5000    0.0000    0.0000 C   0  0  0  0  0  0  0  0  0  0  0  0
    0.7500    1.2990    0.0000 C   0  0  0  0  0  0  0  0  0  0  0  0
   -0.7500    1.2990    0.0000 N   0  0  0  0  0  0  0  0  0  0  0  0
   -1.5000    0.0000    0.0000 C   0  0  0  0  0  0  0  0  0  0  0  0
   -0.7500   -1.2990    0.0000 C   0  0  0  0  0  0  0  0  0  0  0  0
   -1.2135   -2.7256    0.0000 C   0  0  0  0  0  0  0  0  0  0  0  0
   -2.4271   -1.8439    0.0000 C   0  0  0  0  0  0  0  0  0  0  0  0
   -3.7974   -2.4540    0.0000 C   0  0  0  0  0  0  0  0  0  0  0  0
   -5.0109   -1.5724    0.0000 C   0  0  0  0  0  0  0  0  0  0  0  0
   -4.8541   -0.0806    0.0000 C   0  0  0  0  0  0  0  0  0  0  0  0
   -6.0676    0.8011    0.0000 Cl  0  0  0  0  0  0  0  0  0  0  0  0
   -3.4838    0.5295    0.0000 C   0  0  0  0  0  0  0  0  0  0  0  0
   -2.2703   -0.3522    0.0000 C   0  0  0  0  0  0  0  0  0  0  0  0
  1  2  2  0
  2  3  1  0
  3  4  2  0
  4  5  1  0
  5  6  2  0
  6  7  1  0
  7  8  2  0
  2  9  1  0
  9 10  1  0
 10 11  1  0
 11 12  1  0
 12 13  1  0
 13 14  2  0
 13 15  1  0
 15 16  2  0
 16 17  1  0
 17 18  2  0
 18 19  1  0
 19 20  2  0
 20 21  1  0
 21 22  1  6
 22 23  2  0
 23 24  1  0
 24 25  2  0
 25 26  1  0
 25 27  1  0
 27 28  2  0
  8  3  1  0
 21  9  1  0
 28 22  1  0
 21 12  1  0
 20 15  1  0
M  END
>  <Synonyms>  (130) 
AZD-9639|BTA-9881|BTA9881|MEDI-564

>  <Research Codes>  (130) 
AZD-9639|BTA9881|MEDI-564

>  <Phase>  (130) 
1

>  <Applicants>  (130) 
nan

>  <USAN Stem>  (130) 
nan

>  <USAN Year>  (130) 
nan

>  <USAN Stem Definition>  (130) 
nan

>  <USAN Stem Substem>  (130) 
nan

>  <First Approval>  (130) 
nan

>  <ATC Codes>  (130) 
nan

>  <Level 4 ATC Codes>  (130) 
nan

>  <Level 3 ATC Codes>  (130) 
nan

>  <Level 2 ATC Codes>  (130) 
nan

>  <Level 1 ATC Codes>  (130) 
nan

>  <Indication Class>  (130) 
nan

>  <Patent>  (130) 
nan

>  <Drug Type>  (130) 
1:Synthetic Small Molecule

>  <Passes Rule of Five>  (130) 
True

>  <First In Class>  (130) 
False

>  <Chirality>  (130) 
Single Stereoisomer

>  <Prodrug>  (130) 
False

>  <Oral>  (130) 
False

>  <Parenteral>  (130) 
False

>  <Topical>  (130) 
False

>  <Black Box>  (130) 
False

>  <Availability Type>  (130) 
Unknown

>  <Withdrawn Year>  (130) 
nan

>  <Withdrawn Reason>  (130) 
nan

>  <Withdrawn Country>  (130) 
nan

>  <Withdrawn Class>  (130) 
nan

>  <SMILES>  (130) 
O=C(c1cccnc1)N1CCN2C(=O)c3ccncc3[C@]12c1ccc(Cl)cc1

>  <InChi Key>  (130) 
QZSZPSDRJPPZDZ-OAQYLSRUSA-N

$$$$
CHEMBL1741037
     RDKit          2D

 24 26  0  0  0  0  0  0  0  0999 V2000
   -3.7500   -9.0933    0.0000 C   0  0  0  0  0  0  0  0  0  0  0  0
   -3.0000   -7.7942    0.0000 C   0  0  0  0  0  0  0  0  0  0  0  0
   -1.5000   -7.7942    0.0000 O   0  0  0  0  0  0  0  0  0  0  0  0
   -0.7500   -6.4952    0.0000 C   0  0  0  0  0  0  0  0  0  0  0  0
   -1.5000   -5.1962    0.0000 C   0  0  0  0  0  0  0  0  0  0  0  0
   -0.7500   -3.8971    0.0000 C   0  0  0  0  0  0  0  0  0  0  0  0
    0.7500   -3.8971    0.0000 C   0  0  0  0  0  0  0  0  0  0  0  0
    1.5000   -2.5981    0.0000 O   0  0  0  0  0  0  0  0  0  0  0  0
    0.7500   -1.2990    0.0000 C   0  0  0  0  0  0  0  0  0  0  0  0
    1.5000    0.0000    0.0000 C   0  0  0  0  0  0  0  0  0  0  0  0
    0.7500    1.2990    0.0000 N   0  0  0  0  0  0  0  0  0  0  0  0
   -0.7500    1.2990    0.0000 C   0  0  0  0  0  0  0  0  0  0  0  0
   -1.5000    2.5981    0.0000 C   0  0  0  0  0  0  0  0  0  0  0  0
   -3.0000    2.5981    0.0000 C   0  0  0  0  0  0  0  0  0  0  0  0
   -3.7500    1.2990    0.0000 C   0  0  0  0  0  0  0  0  0  0  0  0
   -5.2500    1.2990    0.0000 Cl  0  0  0  0  0  0  0  0  0  0  0  0
   -3.0000    0.0000    0.0000 C   0  0  0  0  0  0  0  0  0  0  0  0
   -1.5000    0.0000    0.0000 C   0  0  0  0  0  0  0  0  0  0  0  0
   -0.7500   -1.2990    0.0000 N   0  0  0  0  0  0  0  0  0  0  0  0
    1.5000   -5.1962    0.0000 C   0  0  0  0  0  0  0  0  0  0  0  0
    0.7500   -6.4952    0.0000 C   0  0  0  0  0  0  0  0  0  0  0  0
   -3.7500   -6.4952    0.0000 C   0  0  0  0  0  0  0  0  0  0  0  0
   -5.2500   -6.4952    0.0000 O   0  0  0  0  0  0  0  0  0  0  0  0
   -3.0000   -5.1962    0.0000 O   0  0  0  0  0  0  0  0  0  0  0  0
  1  2  1  0
  2  3  1  0
  3  4  1  0
  4  5  2  0
  5  6  1  0
  6  7  2  0
  7  8  1  0
  8  9  1  0
  9 10  2  0
 10 11  1  0
 11 12  2  0
 12 13  1  0
 13 14  2  0
 14 15  1  0
 15 16  1  0
 15 17  2  0
 17 18  1  0
 18 19  2  0
  7 20  1  0
 20 21  2  0
  2 22  1  0
 22 23  2  0
 22 24  1  0
 21  4  1  0
 19  9  1  0
 18 12  1  0
M  END
>  <Synonyms>  (131) 
R(+)XK469

>  <Research Codes>  (131) 
nan

>  <Phase>  (131) 
1

>  <Applicants>  (131) 
nan

>  <USAN Stem>  (131) 
nan

>  <USAN Year>  (131) 
nan

>  <USAN Stem Definition>  (131) 
nan

>  <USAN Stem Substem>  (131) 
nan

>  <First Approval>  (131) 
nan

>  <ATC Codes>  (131) 
nan

>  <Level 4 ATC Codes>  (131) 
nan

>  <Level 3 ATC Codes>  (131) 
nan

>  <Level 2 ATC Codes>  (131) 
nan

>  <Level 1 ATC Codes>  (131) 
nan

>  <Indication Class>  (131) 
nan

>  <Patent>  (131) 
nan

>  <Drug Type>  (131) 
1:Synthetic Small Molecule

>  <Passes Rule of Five>  (131) 
True

>  <First In Class>  (131) 
False

>  <Chirality>  (131) 
Unknown

>  <Prodrug>  (131) 
False

>  <Oral>  (131) 
False

>  <Parenteral>  (131) 
False

>  <Topical>  (131) 
False

>  <Black Box>  (131) 
False

>  <Availability Type>  (131) 
Unknown

>  <Withdrawn Year>  (131) 
nan

>  <Withdrawn Reason>  (131) 
nan

>  <Withdrawn Country>  (131) 
nan

>  <Withdrawn Class>  (131) 
nan

>  <SMILES>  (131) 
C[C@@H](Oc1ccc(Oc2cnc3ccc(Cl)cc3n2)cc1)C(=O)O

>  <InChi Key>  (131) 
NUQZXROIVGBRGR-UHFFFAOYSA-N

$$$$
CHEMBL398338
     RDKit          2D

 26 29  0  0  0  0  0  0  0  0999 V2000
    3.0000   -1.5000    0.0000 C   0  0  0  0  0  0  0  0  0  0  0  0
    3.0000    0.0000    0.0000 C   0  0  0  0  0  0  0  0  0  0  0  0
    3.0000    1.5000    0.0000 C   0  0  0  0  0  0  0  0  0  0  0  0
    4.5000    0.0000    0.0000 C   0  0  0  0  0  0  0  0  0  0  0  0
    1.5000    0.0000    0.0000 C   0  0  0  0  0  0  0  0  0  0  0  0
    0.7500   -1.2990    0.0000 C   0  0  0  0  0  0  0  0  0  0  0  0
   -0.7500   -1.2990    0.0000 C   0  0  0  0  0  0  0  0  0  0  0  0
   -1.5000    0.0000    0.0000 C   0  0  0  0  0  0  0  0  0  0  0  0
   -0.7500    1.2990    0.0000 C   0  0  0  0  0  0  0  0  0  0  0  0
    0.7500    1.2990    0.0000 C   0  0  0  0  0  0  0  0  0  0  0  0
   -1.7537    2.4138    0.0000 C   0  0  0  0  0  0  0  0  0  0  0  0
   -3.1240    1.8037    0.0000 C   0  0  0  0  0  0  0  0  0  0  0  0
   -2.9672    0.3119    0.0000 C   0  0  0  0  0  0  0  0  0  0  0  0
   -4.0819   -0.6918    0.0000 N   0  0  0  0  0  0  0  0  0  0  0  0
   -5.5085   -0.2283    0.0000 C   0  0  0  0  0  0  0  0  0  0  0  0
   -5.8204    1.2389    0.0000 O   0  0  0  0  0  0  0  0  0  0  0  0
   -6.6232   -1.2320    0.0000 N   0  0  0  0  0  0  0  0  0  0  0  0
   -8.0498   -0.7685    0.0000 C   0  0  0  0  0  0  0  0  0  0  0  0
   -8.3617    0.6987    0.0000 C   0  0  0  0  0  0  0  0  0  0  0  0
   -9.7883    1.1623    0.0000 C   0  0  0  0  0  0  0  0  0  0  0  0
  -10.9030    0.1586    0.0000 C   0  0  0  0  0  0  0  0  0  0  0  0
  -10.5911   -1.3086    0.0000 C   0  0  0  0  0  0  0  0  0  0  0  0
  -11.4728   -2.5222    0.0000 N   0  0  0  0  0  0  0  0  0  0  0  0
  -10.5911   -3.7357    0.0000 N   0  0  0  0  0  0  0  0  0  0  0  0
   -9.1645   -3.2722    0.0000 C   0  0  0  0  0  0  0  0  0  0  0  0
   -9.1645   -1.7722    0.0000 C   0  0  0  0  0  0  0  0  0  0  0  0
  1  2  1  0
  2  3  1  0
  2  4  1  0
  2  5  1  0
  5  6  2  0
  6  7  1  0
  7  8  2  0
  8  9  1  0
  9 10  2  0
  9 11  1  0
 11 12  1  0
 12 13  1  0
 13 14  1  6
 14 15  1  0
 15 16  2  0
 15 17  1  0
 17 18  1  0
 18 19  2  0
 19 20  1  0
 20 21  2  0
 21 22  1  0
 22 23  1  0
 23 24  1  0
 24 25  2  0
 25 26  1  0
 10  5  1  0
 26 18  1  0
 13  8  1  0
 26 22  2  0
M  END
>  <Synonyms>  (132) 
ABT-102

>  <Research Codes>  (132) 
ABT-102

>  <Phase>  (132) 
1

>  <Applicants>  (132) 
nan

>  <USAN Stem>  (132) 
nan

>  <USAN Year>  (132) 
nan

>  <USAN Stem Definition>  (132) 
nan

>  <USAN Stem Substem>  (132) 
nan

>  <First Approval>  (132) 
nan

>  <ATC Codes>  (132) 
nan

>  <Level 4 ATC Codes>  (132) 
nan

>  <Level 3 ATC Codes>  (132) 
nan

>  <Level 2 ATC Codes>  (132) 
nan

>  <Level 1 ATC Codes>  (132) 
nan

>  <Indication Class>  (132) 
nan

>  <Patent>  (132) 
nan

>  <Drug Type>  (132) 
1:Synthetic Small Molecule

>  <Passes Rule of Five>  (132) 
True

>  <First In Class>  (132) 
False

>  <Chirality>  (132) 
Single Stereoisomer

>  <Prodrug>  (132) 
False

>  <Oral>  (132) 
False

>  <Parenteral>  (132) 
False

>  <Topical>  (132) 
False

>  <Black Box>  (132) 
False

>  <Availability Type>  (132) 
Unknown

>  <Withdrawn Year>  (132) 
nan

>  <Withdrawn Reason>  (132) 
nan

>  <Withdrawn Country>  (132) 
nan

>  <Withdrawn Class>  (132) 
nan

>  <SMILES>  (132) 
CC(C)(C)c1ccc2c(c1)CC[C@H]2NC(=O)Nc1cccc2[nH]ncc12

>  <InChi Key>  (132) 
TYOYXJNGINZFET-GOSISDBHSA-N

$$$$
CHEMBL3314565
     RDKit          2D

 35 37  0  0  0  0  0  0  0  0999 V2000
    9.9984   -5.7808    0.0000 C   0  0  0  0  0  0  0  0  0  0  0  0
    8.7849   -6.6625    0.0000 O   0  0  0  0  0  0  0  0  0  0  0  0
    7.4146   -6.0524    0.0000 C   0  0  0  0  0  0  0  0  0  0  0  0
    6.2011   -6.9341    0.0000 C   0  0  0  0  0  0  0  0  0  0  0  0
    6.3579   -8.4259    0.0000 C   0  0  0  0  0  0  0  0  0  0  0  0
    4.8308   -6.3240    0.0000 N   0  0  0  0  0  0  0  0  0  0  0  0
    4.6740   -4.8322    0.0000 C   0  0  0  0  0  0  0  0  0  0  0  0
    5.8875   -3.9505    0.0000 O   0  0  0  0  0  0  0  0  0  0  0  0
    3.3037   -4.2221    0.0000 C   0  0  0  0  0  0  0  0  0  0  0  0
    2.9918   -2.7549    0.0000 N   0  0  0  0  0  0  0  0  0  0  0  0
    1.5000   -2.5981    0.0000 C   0  0  0  0  0  0  0  0  0  0  0  0
    0.7500   -1.2990    0.0000 N   0  0  0  0  0  0  0  0  0  0  0  0
    1.5000    0.0000    0.0000 C   0  0  0  0  0  0  0  0  0  0  0  0
    0.7500    1.2990    0.0000 C   0  0  0  0  0  0  0  0  0  0  0  0
   -0.7500    1.2990    0.0000 C   0  0  0  0  0  0  0  0  0  0  0  0
   -1.5000    2.5981    0.0000 N   0  0  0  0  0  0  0  0  0  0  0  0
   -0.7500    3.8971    0.0000 C   0  0  0  0  0  0  0  0  0  0  0  0
    0.7500    3.8971    0.0000 O   0  0  0  0  0  0  0  0  0  0  0  0
   -1.5000    5.1962    0.0000 C   0  0  0  0  0  0  0  0  0  0  0  0
   -2.9918    5.3529    0.0000 N   0  0  0  0  0  0  0  0  0  0  0  0
   -3.3037    6.8202    0.0000 C   0  0  0  0  0  0  0  0  0  0  0  0
   -4.6740    7.4303    0.0000 C   0  0  0  0  0  0  0  0  0  0  0  0
   -2.0046    7.5702    0.0000 C   0  0  0  0  0  0  0  0  0  0  0  0
   -1.8478    9.0619    0.0000 Cl  0  0  0  0  0  0  0  0  0  0  0  0
   -0.8899    6.5665    0.0000 C   0  0  0  0  0  0  0  0  0  0  0  0
    0.5773    6.8783    0.0000 Cl  0  0  0  0  0  0  0  0  0  0  0  0
   -1.5000    0.0000    0.0000 C   0  0  0  0  0  0  0  0  0  0  0  0
   -3.0000    0.0000    0.0000 O   0  0  0  0  0  0  0  0  0  0  0  0
   -3.7500   -1.2990    0.0000 C   0  0  0  0  0  0  0  0  0  0  0  0
   -0.7500   -1.2990    0.0000 C   0  0  0  0  0  0  0  0  0  0  0  0
    0.8899   -3.9684    0.0000 S   0  0  0  0  0  0  0  0  0  0  0  0
    2.0046   -4.9721    0.0000 C   0  0  0  0  0  0  0  0  0  0  0  0
    1.8478   -6.4639    0.0000 C   0  0  0  0  0  0  0  0  0  0  0  0
    3.0613   -7.3456    0.0000 O   0  0  0  0  0  0  0  0  0  0  0  0
    0.4775   -7.0740    0.0000 O   0  0  0  0  0  0  0  0  0  0  0  0
  1  2  1  0
  2  3  1  0
  3  4  1  0
  4  5  1  0
  4  6  1  0
  6  7  1  0
  7  8  2  0
  7  9  1  0
  9 10  1  0
 10 11  2  0
 11 12  1  0
 12 13  1  0
 13 14  1  0
 14 15  1  0
 15 16  1  6
 16 17  1  0
 17 18  2  0
 17 19  1  0
 19 20  1  0
 20 21  1  0
 21 22  1  0
 21 23  2  0
 23 24  1  0
 23 25  1  0
 25 26  1  0
 15 27  1  0
 27 28  1  6
 28 29  1  0
 27 30  1  0
 11 31  1  0
 31 32  1  0
 32 33  1  0
 33 34  2  0
 33 35  1  0
 32  9  2  0
 30 12  1  0
 25 19  2  0
M  END
>  <Synonyms>  (133) 
AZD 5099|AZD-5099|AZD5099

>  <Research Codes>  (133) 
AZD-5099|AZD5099

>  <Phase>  (133) 
1

>  <Applicants>  (133) 
nan

>  <USAN Stem>  (133) 
nan

>  <USAN Year>  (133) 
nan

>  <USAN Stem Definition>  (133) 
nan

>  <USAN Stem Substem>  (133) 
nan

>  <First Approval>  (133) 
nan

>  <ATC Codes>  (133) 
nan

>  <Level 4 ATC Codes>  (133) 
nan

>  <Level 3 ATC Codes>  (133) 
nan

>  <Level 2 ATC Codes>  (133) 
nan

>  <Level 1 ATC Codes>  (133) 
nan

>  <Indication Class>  (133) 
nan

>  <Patent>  (133) 
nan

>  <Drug Type>  (133) 
1:Synthetic Small Molecule

>  <Passes Rule of Five>  (133) 
False

>  <First In Class>  (133) 
False

>  <Chirality>  (133) 
Single Stereoisomer

>  <Prodrug>  (133) 
False

>  <Oral>  (133) 
False

>  <Parenteral>  (133) 
False

>  <Topical>  (133) 
False

>  <Black Box>  (133) 
False

>  <Availability Type>  (133) 
Unknown

>  <Withdrawn Year>  (133) 
nan

>  <Withdrawn Reason>  (133) 
nan

>  <Withdrawn Country>  (133) 
nan

>  <Withdrawn Class>  (133) 
nan

>  <SMILES>  (133) 
COC[C@H](C)NC(=O)c1nc(N2CC[C@@H](NC(=O)c3[nH]c(C)c(Cl)c3Cl)[C@@H](OC)C2)sc1C(=O)O

>  <InChi Key>  (133) 
KGZHRAVDXGQUQM-QZNDUUOJSA-N

$$$$
CHEMBL467888
     RDKit          2D

 27 29  0  0  0  0  0  0  0  0999 V2000
   -0.5773   -4.2803    0.0000 C   0  0  0  0  0  0  0  0  0  0  0  0
    0.8899   -3.9684    0.0000 C   0  0  0  0  0  0  0  0  0  0  0  0
    2.0046   -4.9721    0.0000 C   0  0  0  0  0  0  0  0  0  0  0  0
    3.3037   -4.2221    0.0000 C   0  0  0  0  0  0  0  0  0  0  0  0
    2.9918   -2.7549    0.0000 C   0  0  0  0  0  0  0  0  0  0  0  0
    3.9955   -1.6402    0.0000 C   0  0  0  0  0  0  0  0  0  0  0  0
    3.5320   -0.2136    0.0000 O   0  0  0  0  0  0  0  0  0  0  0  0
    5.4627   -1.9520    0.0000 C   0  0  0  0  0  0  0  0  0  0  0  0
    6.9299   -2.2639    0.0000 F   0  0  0  0  0  0  0  0  0  0  0  0
    5.7746   -0.4848    0.0000 F   0  0  0  0  0  0  0  0  0  0  0  0
    5.1508   -3.4192    0.0000 F   0  0  0  0  0  0  0  0  0  0  0  0
    1.5000   -2.5981    0.0000 N   0  0  0  0  0  0  0  0  0  0  0  0
    0.7500   -1.2990    0.0000 C   0  0  0  0  0  0  0  0  0  0  0  0
    1.5000    0.0000    0.0000 C   0  0  0  0  0  0  0  0  0  0  0  0
    0.7500    1.2990    0.0000 C   0  0  0  0  0  0  0  0  0  0  0  0
   -0.7500    1.2990    0.0000 C   0  0  0  0  0  0  0  0  0  0  0  0
   -1.5000    2.5981    0.0000 N   0  0  0  0  0  0  0  0  0  0  0  0
   -3.0000    2.5981    0.0000 C   0  0  0  0  0  0  0  0  0  0  0  0
   -3.7500    3.8971    0.0000 O   0  0  0  0  0  0  0  0  0  0  0  0
   -3.7500    1.2990    0.0000 C   0  0  0  0  0  0  0  0  0  0  0  0
   -3.0000    0.0000    0.0000 C   0  0  0  0  0  0  0  0  0  0  0  0
   -3.7500   -1.2990    0.0000 C   0  0  0  0  0  0  0  0  0  0  0  0
   -4.5000   -2.5981    0.0000 F   0  0  0  0  0  0  0  0  0  0  0  0
   -5.0490   -0.5490    0.0000 F   0  0  0  0  0  0  0  0  0  0  0  0
   -2.4510   -2.0490    0.0000 F   0  0  0  0  0  0  0  0  0  0  0  0
   -1.5000    0.0000    0.0000 C   0  0  0  0  0  0  0  0  0  0  0  0
   -0.7500   -1.2990    0.0000 C   0  0  0  0  0  0  0  0  0  0  0  0
  2  1  1  1
  2  3  1  0
  3  4  1  0
  5  4  1  1
  5  6  1  0
  6  7  1  1
  6  8  1  0
  8  9  1  0
  8 10  1  0
  8 11  1  0
  5 12  1  0
 12 13  1  0
 13 14  2  0
 14 15  1  0
 15 16  2  0
 16 17  1  0
 17 18  1  0
 18 19  2  0
 18 20  1  0
 20 21  2  0
 21 22  1  0
 22 23  1  0
 22 24  1  0
 22 25  1  0
 21 26  1  0
 26 27  2  0
 12  2  1  0
 27 13  1  0
 26 16  1  0
M  END
>  <Synonyms>  (134) 
LGD-2941

>  <Research Codes>  (134) 
nan

>  <Phase>  (134) 
1

>  <Applicants>  (134) 
nan

>  <USAN Stem>  (134) 
nan

>  <USAN Year>  (134) 
nan

>  <USAN Stem Definition>  (134) 
nan

>  <USAN Stem Substem>  (134) 
nan

>  <First Approval>  (134) 
nan

>  <ATC Codes>  (134) 
nan

>  <Level 4 ATC Codes>  (134) 
nan

>  <Level 3 ATC Codes>  (134) 
nan

>  <Level 2 ATC Codes>  (134) 
nan

>  <Level 1 ATC Codes>  (134) 
nan

>  <Indication Class>  (134) 
nan

>  <Patent>  (134) 
nan

>  <Drug Type>  (134) 
1:Synthetic Small Molecule

>  <Passes Rule of Five>  (134) 
True

>  <First In Class>  (134) 
False

>  <Chirality>  (134) 
Single Stereoisomer

>  <Prodrug>  (134) 
False

>  <Oral>  (134) 
False

>  <Parenteral>  (134) 
False

>  <Topical>  (134) 
False

>  <Black Box>  (134) 
False

>  <Availability Type>  (134) 
Unknown

>  <Withdrawn Year>  (134) 
nan

>  <Withdrawn Reason>  (134) 
nan

>  <Withdrawn Country>  (134) 
nan

>  <Withdrawn Class>  (134) 
nan

>  <SMILES>  (134) 
C[C@@H]1CC[C@H]([C@@H](O)C(F)(F)F)N1c1ccc2[nH]c(=O)cc(C(F)(F)F)c2c1

>  <InChi Key>  (134) 
HWLLYFXDDGGHOE-BCSUUIJWSA-N

$$$$
CHEMBL3544966
     RDKit          2D

 24 27  0  0  0  0  0  0  0  0999 V2000
    6.5218   -0.9664    0.0000 O   0  0  0  0  0  0  0  0  0  0  0  0
    5.3083   -1.8481    0.0000 C   0  0  0  0  0  0  0  0  0  0  0  0
    5.3083   -3.3481    0.0000 N   0  0  0  0  0  0  0  0  0  0  0  0
    3.8817   -3.8116    0.0000 C   0  0  0  0  0  0  0  0  0  0  0  0
    3.4182   -5.2382    0.0000 O   0  0  0  0  0  0  0  0  0  0  0  0
    3.0000   -2.5981    0.0000 C   0  0  0  0  0  0  0  0  0  0  0  0
    1.5000   -2.5981    0.0000 C   0  0  0  0  0  0  0  0  0  0  0  0
    0.7500   -1.2990    0.0000 C   0  0  0  0  0  0  0  0  0  0  0  0
    1.5000    0.0000    0.0000 C   0  0  0  0  0  0  0  0  0  0  0  0
    0.7500    1.2990    0.0000 C   0  0  0  0  0  0  0  0  0  0  0  0
   -0.7500    1.2990    0.0000 C   0  0  0  0  0  0  0  0  0  0  0  0
   -1.5000    2.5981    0.0000 N   0  0  0  0  0  0  0  0  0  0  0  0
   -3.0000    2.5981    0.0000 C   0  0  0  0  0  0  0  0  0  0  0  0
   -3.7500    1.2990    0.0000 C   0  0  0  0  0  0  0  0  0  0  0  0
   -3.0000    0.0000    0.0000 C   0  0  0  0  0  0  0  0  0  0  0  0
   -3.7500   -1.2990    0.0000 C   0  0  0  0  0  0  0  0  0  0  0  0
   -5.2500   -1.2990    0.0000 C   0  0  0  0  0  0  0  0  0  0  0  0
   -6.0000   -2.5981    0.0000 C   0  0  0  0  0  0  0  0  0  0  0  0
   -5.2500   -3.8971    0.0000 N   0  0  0  0  0  0  0  0  0  0  0  0
   -3.7500   -3.8971    0.0000 C   0  0  0  0  0  0  0  0  0  0  0  0
   -3.0000   -2.5981    0.0000 C   0  0  0  0  0  0  0  0  0  0  0  0
   -1.5000    0.0000    0.0000 C   0  0  0  0  0  0  0  0  0  0  0  0
   -0.7500   -1.2990    0.0000 C   0  0  0  0  0  0  0  0  0  0  0  0
    3.8817   -1.3846    0.0000 S   0  0  0  0  0  0  0  0  0  0  0  0
  1  2  2  0
  2  3  1  0
  3  4  1  0
  4  5  2  0
  4  6  1  0
  6  7  2  0
  7  8  1  0
  8  9  2  0
  9 10  1  0
 10 11  2  0
 11 12  1  0
 12 13  2  0
 13 14  1  0
 14 15  2  0
 15 16  1  0
 16 17  2  0
 17 18  1  0
 18 19  2  0
 19 20  1  0
 20 21  2  0
 15 22  1  0
 22 23  2  0
  6 24  1  0
 24  2  1  0
 23  8  1  0
 22 11  1  0
 21 16  1  0
M  END
>  <Synonyms>  (135) 
GSK-1059615|GSK-615|GSK1059615

>  <Research Codes>  (135) 
GSK1059615|GSK615

>  <Phase>  (135) 
1

>  <Applicants>  (135) 
nan

>  <USAN Stem>  (135) 
nan

>  <USAN Year>  (135) 
nan

>  <USAN Stem Definition>  (135) 
nan

>  <USAN Stem Substem>  (135) 
nan

>  <First Approval>  (135) 
nan

>  <ATC Codes>  (135) 
nan

>  <Level 4 ATC Codes>  (135) 
nan

>  <Level 3 ATC Codes>  (135) 
nan

>  <Level 2 ATC Codes>  (135) 
nan

>  <Level 1 ATC Codes>  (135) 
nan

>  <Indication Class>  (135) 
nan

>  <Patent>  (135) 
nan

>  <Drug Type>  (135) 
1:Synthetic Small Molecule

>  <Passes Rule of Five>  (135) 
True

>  <First In Class>  (135) 
False

>  <Chirality>  (135) 
Achiral Molecule

>  <Prodrug>  (135) 
False

>  <Oral>  (135) 
False

>  <Parenteral>  (135) 
False

>  <Topical>  (135) 
False

>  <Black Box>  (135) 
False

>  <Availability Type>  (135) 
Unknown

>  <Withdrawn Year>  (135) 
nan

>  <Withdrawn Reason>  (135) 
nan

>  <Withdrawn Country>  (135) 
nan

>  <Withdrawn Class>  (135) 
nan

>  <SMILES>  (135) 
O=C1NC(=O)/C(=C/c2ccc3nccc(-c4ccncc4)c3c2)S1

>  <InChi Key>  (135) 
QDITZBLZQQZVEE-YBEGLDIGSA-N

$$$$
CHEMBL3601411
     RDKit          2D

 40 44  0  0  0  0  0  0  0  0999 V2000
    6.0000   -5.1962    0.0000 C   0  0  0  0  0  0  0  0  0  0  0  0
    4.5000   -5.1962    0.0000 C   0  0  0  0  0  0  0  0  0  0  0  0
    3.7500   -6.4952    0.0000 C   0  0  0  0  0  0  0  0  0  0  0  0
    2.2500   -6.4952    0.0000 C   0  0  0  0  0  0  0  0  0  0  0  0
    1.5000   -7.7942    0.0000 C   0  0  0  0  0  0  0  0  0  0  0  0
    1.5000   -5.1962    0.0000 C   0  0  0  0  0  0  0  0  0  0  0  0
    2.2500   -3.8971    0.0000 N   0  0  0  0  0  0  0  0  0  0  0  0
    1.5000   -2.5981    0.0000 S   0  0  0  0  0  0  0  0  0  0  0  0
    0.2010   -3.3481    0.0000 O   0  0  0  0  0  0  0  0  0  0  0  0
    2.7990   -1.8481    0.0000 O   0  0  0  0  0  0  0  0  0  0  0  0
    0.7500   -1.2990    0.0000 C   0  0  0  0  0  0  0  0  0  0  0  0
    1.5000    0.0000    0.0000 C   0  0  0  0  0  0  0  0  0  0  0  0
    0.7500    1.2990    0.0000 C   0  0  0  0  0  0  0  0  0  0  0  0
   -0.7500    1.2990    0.0000 C   0  0  0  0  0  0  0  0  0  0  0  0
   -1.5000    0.0000    0.0000 C   0  0  0  0  0  0  0  0  0  0  0  0
   -0.7500   -1.2990    0.0000 C   0  0  0  0  0  0  0  0  0  0  0  0
   -3.0000    0.0000    0.0000 C   0  0  0  0  0  0  0  0  0  0  0  0
   -3.7500   -1.2990    0.0000 N   0  0  0  0  0  0  0  0  0  0  0  0
   -5.2500   -1.2990    0.0000 O   0  0  0  0  0  0  0  0  0  0  0  0
   -3.7500    1.2990    0.0000 C   0  0  0  0  0  0  0  0  0  0  0  0
   -5.2500    1.2990    0.0000 C   0  0  0  0  0  0  0  0  0  0  0  0
   -6.0000    2.5981    0.0000 C   0  0  0  0  0  0  0  0  0  0  0  0
   -7.5000    2.5981    0.0000 S   0  0  0  0  0  0  0  0  0  0  0  0
   -7.5000    4.0981    0.0000 O   0  0  0  0  0  0  0  0  0  0  0  0
   -7.5000    1.0981    0.0000 O   0  0  0  0  0  0  0  0  0  0  0  0
   -9.0000    2.5981    0.0000 N   0  0  0  0  0  0  0  0  0  0  0  0
   -9.7500    3.8971    0.0000 C   0  0  0  0  0  0  0  0  0  0  0  0
  -11.2500    3.8971    0.0000 C   0  0  0  0  0  0  0  0  0  0  0  0
  -12.0000    5.1962    0.0000 C   0  0  0  0  0  0  0  0  0  0  0  0
  -12.0000    2.5981    0.0000 C   0  0  0  0  0  0  0  0  0  0  0  0
  -11.2500    1.2990    0.0000 C   0  0  0  0  0  0  0  0  0  0  0  0
  -12.0000    0.0000    0.0000 C   0  0  0  0  0  0  0  0  0  0  0  0
   -9.7500    1.2990    0.0000 C   0  0  0  0  0  0  0  0  0  0  0  0
   -5.2500    3.8971    0.0000 C   0  0  0  0  0  0  0  0  0  0  0  0
   -3.7500    3.8971    0.0000 C   0  0  0  0  0  0  0  0  0  0  0  0
   -3.0000    2.5981    0.0000 C   0  0  0  0  0  0  0  0  0  0  0  0
   -1.5000    2.5981    0.0000 C   0  0  0  0  0  0  0  0  0  0  0  0
   -0.7500    3.8971    0.0000 N   0  0  0  0  0  0  0  0  0  0  0  0
    0.7500    3.8971    0.0000 O   0  0  0  0  0  0  0  0  0  0  0  0
    3.7500   -3.8971    0.0000 C   0  0  0  0  0  0  0  0  0  0  0  0
  2  1  1  1
  2  3  1  0
  3  4  1  0
  4  5  1  1
  4  6  1  0
  6  7  1  0
  7  8  1  0
  8  9  2  0
  8 10  2  0
  8 11  1  0
 11 12  2  0
 12 13  1  0
 13 14  2  0
 14 15  1  0
 15 16  2  0
 15 17  1  0
 17 18  2  3
 18 19  1  0
 17 20  1  0
 20 21  2  0
 21 22  1  0
 22 23  1  0
 23 24  2  0
 23 25  2  0
 23 26  1  0
 26 27  1  0
 27 28  1  0
 28 29  1  6
 28 30  1  0
 30 31  1  0
 31 32  1  6
 31 33  1  0
 22 34  2  0
 34 35  1  0
 35 36  2  0
 36 37  1  0
 37 38  2  3
 38 39  1  0
  7 40  1  0
 40  2  1  0
 16 11  1  0
 36 20  1  0
 37 14  1  0
 33 26  1  0
M  END
>  <Synonyms>  (136) 
BC-2059|TEGAVIVINT

>  <Research Codes>  (136) 
BC-2059

>  <Phase>  (136) 
1

>  <Applicants>  (136) 
nan

>  <USAN Stem>  (136) 
'-vin-; -vivint'

>  <USAN Year>  (136) 
nan

>  <USAN Stem Definition>  (136) 
vinca alkaloids; WNT (wingless-type mouse mammary tumor virus) pathway inhibitors

>  <USAN Stem Substem>  (136) 
'-vin-(-vin-); -vivint(-vivint)'

>  <First Approval>  (136) 
nan

>  <ATC Codes>  (136) 
nan

>  <Level 4 ATC Codes>  (136) 
nan

>  <Level 3 ATC Codes>  (136) 
nan

>  <Level 2 ATC Codes>  (136) 
nan

>  <Level 1 ATC Codes>  (136) 
nan

>  <Indication Class>  (136) 
nan

>  <Patent>  (136) 
nan

>  <Drug Type>  (136) 
1:Synthetic Small Molecule

>  <Passes Rule of Five>  (136) 
False

>  <First In Class>  (136) 
False

>  <Chirality>  (136) 
Single Stereoisomer

>  <Prodrug>  (136) 
False

>  <Oral>  (136) 
False

>  <Parenteral>  (136) 
False

>  <Topical>  (136) 
False

>  <Black Box>  (136) 
False

>  <Availability Type>  (136) 
Unknown

>  <Withdrawn Year>  (136) 
nan

>  <Withdrawn Reason>  (136) 
nan

>  <Withdrawn Country>  (136) 
nan

>  <Withdrawn Class>  (136) 
nan

>  <SMILES>  (136) 
C[C@H]1C[C@@H](C)CN(S(=O)(=O)c2ccc3c(c2)C(=NO)c2cc(S(=O)(=O)N4C[C@@H](C)C[C@@H](C)C4)ccc2C3=NO)C1

>  <InChi Key>  (136) 
GAPRVZKWPDRAJA-FGYAAKKASA-N

$$$$
CHEMBL3545137
     RDKit          2D

 31 35  0  0  0  0  0  0  0  0999 V2000
    6.7024    4.7144    0.0000 C   0  0  0  0  0  0  0  0  0  0  0  0
    5.5728    3.7275    0.0000 N   0  0  0  0  0  0  0  0  0  0  0  0
    4.1104    4.0613    0.0000 C   0  0  0  0  0  0  0  0  0  0  0  0
    3.3411    2.7736    0.0000 C   0  0  0  0  0  0  0  0  0  0  0  0
    1.8471    2.6391    0.0000 C   0  0  0  0  0  0  0  0  0  0  0  0
    0.8602    3.7687    0.0000 N   0  0  0  0  0  0  0  0  0  0  0  0
   -0.5191    3.1792    0.0000 C   0  0  0  0  0  0  0  0  0  0  0  0
   -1.9156    3.7285    0.0000 C   0  0  0  0  0  0  0  0  0  0  0  0
   -3.1158    2.8288    0.0000 C   0  0  0  0  0  0  0  0  0  0  0  0
   -4.4951    3.4183    0.0000 N   0  0  0  0  0  0  0  0  0  0  0  0
   -4.6742    4.9076    0.0000 C   0  0  0  0  0  0  0  0  0  0  0  0
   -3.4740    5.8073    0.0000 O   0  0  0  0  0  0  0  0  0  0  0  0
   -6.0534    5.4972    0.0000 C   0  0  0  0  0  0  0  0  0  0  0  0
   -7.2536    4.5974    0.0000 N   0  0  0  0  0  0  0  0  0  0  0  0
   -6.2325    6.9864    0.0000 C   0  0  0  0  0  0  0  0  0  0  0  0
   -5.0323    7.8862    0.0000 C   0  0  0  0  0  0  0  0  0  0  0  0
   -5.2114    9.3754    0.0000 C   0  0  0  0  0  0  0  0  0  0  0  0
   -6.5907    9.9650    0.0000 C   0  0  0  0  0  0  0  0  0  0  0  0
   -7.7909    9.0652    0.0000 C   0  0  0  0  0  0  0  0  0  0  0  0
   -7.6118    7.5760    0.0000 C   0  0  0  0  0  0  0  0  0  0  0  0
   -2.9367    1.3395    0.0000 C   0  0  0  0  0  0  0  0  0  0  0  0
   -1.5574    0.7500    0.0000 C   0  0  0  0  0  0  0  0  0  0  0  0
   -0.3846    1.6852    0.0000 C   0  0  0  0  0  0  0  0  0  0  0  0
    1.0777    1.3515    0.0000 C   0  0  0  0  0  0  0  0  0  0  0  0
    1.7286    0.0000    0.0000 C   0  0  0  0  0  0  0  0  0  0  0  0
    1.0777   -1.3515    0.0000 N   0  0  0  0  0  0  0  0  0  0  0  0
   -0.3846   -1.6852    0.0000 N   0  0  0  0  0  0  0  0  0  0  0  0
   -1.5574   -0.7500    0.0000 C   0  0  0  0  0  0  0  0  0  0  0  0
   -2.9088   -1.4008    0.0000 O   0  0  0  0  0  0  0  0  0  0  0  0
    4.3280    1.6440    0.0000 C   0  0  0  0  0  0  0  0  0  0  0  0
    5.7073    2.2335    0.0000 N   0  0  0  0  0  0  0  0  0  0  0  0
  1  2  1  0
  2  3  1  0
  3  4  2  0
  4  5  1  0
  5  6  1  0
  6  7  1  0
  7  8  2  0
  8  9  1  0
  9 10  1  0
 10 11  1  0
 11 12  2  0
 11 13  1  0
 13 14  1  0
 13 15  1  0
 15 16  1  0
 16 17  1  0
 17 18  1  0
 18 19  1  0
 19 20  1  0
  9 21  2  0
 21 22  1  0
 22 23  2  0
 23 24  1  0
 24 25  1  0
 25 26  2  0
 26 27  1  0
 27 28  1  0
 28 29  2  0
  4 30  1  0
 30 31  2  0
 31  2  1  0
 24  5  2  0
 23  7  1  0
 20 15  1  0
 28 22  1  0
M  END
>  <Synonyms>  (137) 
PF-00477736|PF-477736

>  <Research Codes>  (137) 
PF-00477736|PF-477736

>  <Phase>  (137) 
1

>  <Applicants>  (137) 
nan

>  <USAN Stem>  (137) 
nan

>  <USAN Year>  (137) 
nan

>  <USAN Stem Definition>  (137) 
nan

>  <USAN Stem Substem>  (137) 
nan

>  <First Approval>  (137) 
nan

>  <ATC Codes>  (137) 
nan

>  <Level 4 ATC Codes>  (137) 
nan

>  <Level 3 ATC Codes>  (137) 
nan

>  <Level 2 ATC Codes>  (137) 
nan

>  <Level 1 ATC Codes>  (137) 
nan

>  <Indication Class>  (137) 
nan

>  <Patent>  (137) 
nan

>  <Drug Type>  (137) 
1:Synthetic Small Molecule

>  <Passes Rule of Five>  (137) 
True

>  <First In Class>  (137) 
False

>  <Chirality>  (137) 
Racemic Mixture

>  <Prodrug>  (137) 
False

>  <Oral>  (137) 
False

>  <Parenteral>  (137) 
False

>  <Topical>  (137) 
False

>  <Black Box>  (137) 
False

>  <Availability Type>  (137) 
Unknown

>  <Withdrawn Year>  (137) 
nan

>  <Withdrawn Reason>  (137) 
nan

>  <Withdrawn Country>  (137) 
nan

>  <Withdrawn Class>  (137) 
nan

>  <SMILES>  (137) 
Cn1cc(-c2nc3cc(NC(=O)C(N)C4CCCCC4)cc4c3-c2c[nH][nH]c4=O)cn1

>  <InChi Key>  (137) 
NDEXUOWTGYUVGA-UHFFFAOYSA-N

$$$$
CHEMBL3427435
     RDKit          2D

 48 48  0  0  0  0  0  0  0  0999 V2000
   30.4952  -10.7404    0.0000 O   0  0  0  0  0  0  0  0  0  0  0  0
   30.4952  -12.2404    0.0000 C   0  0  0  0  0  0  0  0  0  0  0  0
   31.7942  -12.9904    0.0000 O   0  0  0  0  0  0  0  0  0  0  0  0
   29.1962  -12.9904    0.0000 C   0  0  0  0  0  0  0  0  0  0  0  0
   27.8971  -12.2404    0.0000 C   0  0  0  0  0  0  0  0  0  0  0  0
   26.5981  -12.9904    0.0000 C   0  0  0  0  0  0  0  0  0  0  0  0
   25.2990  -12.2404    0.0000 N   0  0  0  0  0  0  0  0  0  0  0  0
   24.0000  -12.9904    0.0000 P   0  0  0  0  0  7  0  0  0  0  0  0
   22.7010  -13.7404    0.0000 O   0  0  0  0  0  0  0  0  0  0  0  0
   24.7500  -14.2894    0.0000 O   0  0  0  0  0  0  0  0  0  0  0  0
   23.2500  -11.6913    0.0000 O   0  0  0  0  0  0  0  0  0  0  0  0
   21.7500  -11.6913    0.0000 C   0  0  0  0  0  0  0  0  0  0  0  0
   21.0000  -10.3923    0.0000 C   0  0  0  0  0  0  0  0  0  0  0  0
   19.5000  -10.3923    0.0000 C   0  0  0  0  0  0  0  0  0  0  0  0
   18.7500   -9.0933    0.0000 C   0  0  0  0  0  0  0  0  0  0  0  0
   17.2500   -9.0933    0.0000 N   0  0  0  0  0  0  0  0  0  0  0  0
   16.5000   -7.7942    0.0000 C   0  0  0  0  0  0  0  0  0  0  0  0
   17.2500   -6.4952    0.0000 O   0  0  0  0  0  0  0  0  0  0  0  0
   15.0000   -7.7942    0.0000 C   0  0  0  0  0  0  0  0  0  0  0  0
   14.2500   -6.4952    0.0000 C   0  0  0  0  0  0  0  0  0  0  0  0
   12.7500   -6.4952    0.0000 C   0  0  0  0  0  0  0  0  0  0  0  0
   12.0000   -5.1962    0.0000 N   0  0  0  0  0  0  0  0  0  0  0  0
   10.5000   -5.1962    0.0000 C   0  0  0  0  0  0  0  0  0  0  0  0
    9.7500   -6.4952    0.0000 O   0  0  0  0  0  0  0  0  0  0  0  0
    9.7500   -3.8971    0.0000 C   0  0  0  0  0  0  0  0  0  0  0  0
    8.2500   -3.8971    0.0000 C   0  0  0  0  0  0  0  0  0  0  0  0
    7.5000   -2.5981    0.0000 C   0  0  0  0  0  0  0  0  0  0  0  0
    6.0000   -2.5981    0.0000 C   0  0  0  0  0  0  0  0  0  0  0  0
    5.2500   -1.2990    0.0000 C   0  0  0  0  0  0  0  0  0  0  0  0
    3.7500   -1.2990    0.0000 N   0  0  0  0  0  0  0  0  0  0  0  0
    3.0000    0.0000    0.0000 C   0  0  0  0  0  0  0  0  0  0  0  0
    3.7500    1.2990    0.0000 O   0  0  0  0  0  0  0  0  0  0  0  0
    1.5000    0.0000    0.0000 C   0  0  0  0  0  0  0  0  0  0  0  0
    0.7500   -1.2990    0.0000 C   0  0  0  0  0  0  0  0  0  0  0  0
   -0.7500   -1.2990    0.0000 C   0  0  0  0  0  0  0  0  0  0  0  0
   -1.5000    0.0000    0.0000 C   0  0  0  0  0  0  0  0  0  0  0  0
   -3.0000    0.0000    0.0000 F   0  0  0  0  0  0  0  0  0  0  0  0
   -0.7500    1.2990    0.0000 C   0  0  0  0  0  0  0  0  0  0  0  0
    0.7500    1.2990    0.0000 C   0  0  0  0  0  0  0  0  0  0  0  0
   12.0000   -7.7942    0.0000 C   0  0  0  0  0  0  0  0  0  0  0  0
   10.5000   -7.7942    0.0000 O   0  0  0  0  0  0  0  0  0  0  0  0
   12.7500   -9.0933    0.0000 O   0  0  0  0  0  0  0  0  0  0  0  0
   19.5000   -7.7942    0.0000 C   0  0  0  0  0  0  0  0  0  0  0  0
   18.7500   -6.4952    0.0000 O   0  0  0  0  0  0  0  0  0  0  0  0
   21.0000   -7.7942    0.0000 O   0  0  0  0  0  0  0  0  0  0  0  0
   26.5981  -14.4904    0.0000 C   0  0  0  0  0  0  0  0  0  0  0  0
   25.2990  -15.2404    0.0000 O   0  0  0  0  0  0  0  0  0  0  0  0
   27.8971  -15.2404    0.0000 O   0  0  0  0  0  0  0  0  0  0  0  0
  1  2  2  0
  2  3  1  0
  2  4  1  0
  4  5  1  0
  5  6  1  0
  6  7  1  0
  7  8  1  0
  8  9  2  0
  8 10  2  0
  8 11  1  0
 11 12  1  0
 12 13  1  0
 13 14  1  0
 14 15  1  0
 15 16  1  0
 16 17  1  0
 17 18  2  0
 17 19  1  0
 19 20  1  0
 21 20  1  1
 21 22  1  0
 22 23  1  0
 23 24  2  0
 23 25  1  0
 25 26  1  0
 26 27  1  0
 27 28  1  0
 28 29  1  0
 29 30  1  0
 30 31  1  0
 31 32  2  0
 31 33  1  0
 33 34  2  0
 34 35  1  0
 35 36  2  0
 36 37  1  0
 36 38  1  0
 38 39  2  0
 21 40  1  0
 40 41  2  0
 40 42  1  0
 15 43  1  0
 43 44  2  0
 43 45  1  0
  6 46  1  0
 46 47  2  0
 46 48  1  0
 39 33  1  0
M  END
>  <Synonyms>  (138) 
CTT-1057|CTT1057

>  <Research Codes>  (138) 
CTT1057

>  <Phase>  (138) 
1

>  <Applicants>  (138) 
nan

>  <USAN Stem>  (138) 
nan

>  <USAN Year>  (138) 
nan

>  <USAN Stem Definition>  (138) 
nan

>  <USAN Stem Substem>  (138) 
nan

>  <First Approval>  (138) 
nan

>  <ATC Codes>  (138) 
nan

>  <Level 4 ATC Codes>  (138) 
nan

>  <Level 3 ATC Codes>  (138) 
nan

>  <Level 2 ATC Codes>  (138) 
nan

>  <Level 1 ATC Codes>  (138) 
nan

>  <Indication Class>  (138) 
nan

>  <Patent>  (138) 
nan

>  <Drug Type>  (138) 
1:Synthetic Small Molecule

>  <Passes Rule of Five>  (138) 
False

>  <First In Class>  (138) 
False

>  <Chirality>  (138) 
Single Stereoisomer

>  <Prodrug>  (138) 
False

>  <Oral>  (138) 
False

>  <Parenteral>  (138) 
False

>  <Topical>  (138) 
False

>  <Black Box>  (138) 
False

>  <Availability Type>  (138) 
Unknown

>  <Withdrawn Year>  (138) 
nan

>  <Withdrawn Reason>  (138) 
nan

>  <Withdrawn Country>  (138) 
nan

>  <Withdrawn Class>  (138) 
nan

>  <SMILES>  (138) 
O=C(O)CC[C@H](NP(=O)(O)OCCC[C@H](NC(=O)CC[C@H](NC(=O)CCCCCNC(=O)c1ccc(F)cc1)C(=O)O)C(=O)O)C(=O)O

>  <InChi Key>  (138) 
QRIWPXRVCLZXOM-KBWCOIMZSA-N

$$$$
CHEMBL262344
     RDKit          2D

 19 19  0  0  0  0  0  0  0  0999 V2000
    7.5000    0.0000    0.0000 C   0  0  0  0  0  0  0  0  0  0  0  0
    6.7500   -1.2990    0.0000 C   0  0  0  0  0  0  0  0  0  0  0  0
    5.2500   -1.2990    0.0000 C   0  0  0  0  0  0  0  0  0  0  0  0
    5.2500   -2.7990    0.0000 C   0  0  0  0  0  0  0  0  0  0  0  0
    3.7500   -1.2990    0.0000 C   0  0  0  0  0  0  0  0  0  0  0  0
    3.0000    0.0000    0.0000 C   0  0  0  0  0  0  0  0  0  0  0  0
    1.5000    0.0000    0.0000 C   0  0  0  0  0  0  0  0  0  0  0  0
    0.7500   -1.2990    0.0000 C   0  0  0  0  0  0  0  0  0  0  0  0
   -0.7500   -1.2990    0.0000 C   0  0  0  0  0  0  0  0  0  0  0  0
   -1.5000    0.0000    0.0000 C   0  0  0  0  0  0  0  0  0  0  0  0
   -3.0000    0.0000    0.0000 O   0  0  0  0  0  0  0  0  0  0  0  0
   -0.7500    1.2990    0.0000 C   0  0  0  0  0  0  0  0  0  0  0  0
    0.7500    1.2990    0.0000 C   0  0  0  0  0  0  0  0  0  0  0  0
    5.2500    0.2010    0.0000 C   0  0  0  0  0  0  0  0  0  0  0  0
    6.5490    0.9510    0.0000 C   0  0  0  0  0  0  0  0  0  0  0  0
    6.5490    2.4510    0.0000 C   0  0  0  0  0  0  0  0  0  0  0  0
    7.8481    3.2010    0.0000 C   0  0  0  0  0  0  0  0  0  0  0  0
    7.8481    4.7010    0.0000 C   0  0  0  0  0  0  0  0  0  0  0  0
    9.1471    2.4510    0.0000 C   0  0  0  0  0  0  0  0  0  0  0  0
  1  2  2  0
  2  3  1  0
  3  4  1  6
  3  5  1  0
  5  6  2  3
  6  7  1  0
  7  8  2  0
  8  9  1  0
  9 10  2  0
 10 11  1  0
 10 12  1  0
 12 13  2  0
  3 14  1  0
 14 15  1  0
 15 16  1  0
 16 17  2  3
 17 18  1  0
 17 19  1  0
 13  7  1  0
M  END
>  <Synonyms>  (139) 
(S)-Bakuchiol|BAKUCHIOL|UP 256

>  <Research Codes>  (139) 
UP 256

>  <Phase>  (139) 
1

>  <Applicants>  (139) 
nan

>  <USAN Stem>  (139) 
nan

>  <USAN Year>  (139) 
nan

>  <USAN Stem Definition>  (139) 
nan

>  <USAN Stem Substem>  (139) 
nan

>  <First Approval>  (139) 
nan

>  <ATC Codes>  (139) 
nan

>  <Level 4 ATC Codes>  (139) 
nan

>  <Level 3 ATC Codes>  (139) 
nan

>  <Level 2 ATC Codes>  (139) 
nan

>  <Level 1 ATC Codes>  (139) 
nan

>  <Indication Class>  (139) 
nan

>  <Patent>  (139) 
nan

>  <Drug Type>  (139) 
1:Synthetic Small Molecule

>  <Passes Rule of Five>  (139) 
False

>  <First In Class>  (139) 
False

>  <Chirality>  (139) 
Single Stereoisomer

>  <Prodrug>  (139) 
False

>  <Oral>  (139) 
False

>  <Parenteral>  (139) 
False

>  <Topical>  (139) 
False

>  <Black Box>  (139) 
False

>  <Availability Type>  (139) 
Unknown

>  <Withdrawn Year>  (139) 
nan

>  <Withdrawn Reason>  (139) 
nan

>  <Withdrawn Country>  (139) 
nan

>  <Withdrawn Class>  (139) 
nan

>  <SMILES>  (139) 
C=C[C@@](C)(/C=C/c1ccc(O)cc1)CCC=C(C)C

>  <InChi Key>  (139) 
LFYJSSARVMHQJB-GOSISDBHSA-N

$$$$
CHEMBL297792
     RDKit          2D

 32 35  0  0  0  0  0  0  0  0999 V2000
    1.4533  -19.2302    0.0000 C   0  0  0  0  0  0  0  0  0  0  0  0
    0.8432  -17.8599    0.0000 C   0  0  0  0  0  0  0  0  0  0  0  0
   -0.6486  -17.7031    0.0000 C   0  0  0  0  0  0  0  0  0  0  0  0
   -1.2587  -16.3327    0.0000 C   0  0  0  0  0  0  0  0  0  0  0  0
   -0.3770  -15.1192    0.0000 C   0  0  0  0  0  0  0  0  0  0  0  0
   -0.9871  -13.7489    0.0000 C   0  0  0  0  0  0  0  0  0  0  0  0
   -1.5972  -12.3786    0.0000 C   0  0  0  0  0  0  0  0  0  0  0  0
   -2.2073  -11.0083    0.0000 C   0  0  0  0  0  0  0  0  0  0  0  0
   -3.6745  -10.6964    0.0000 C   0  0  0  0  0  0  0  0  0  0  0  0
   -3.8313   -9.2046    0.0000 C   0  0  0  0  0  0  0  0  0  0  0  0
   -2.4610   -8.5945    0.0000 C   0  0  0  0  0  0  0  0  0  0  0  0
   -2.1491   -7.1273    0.0000 S   0  0  0  0  0  0  0  0  0  0  0  0
   -3.6163   -6.8154    0.0000 O   0  0  0  0  0  0  0  0  0  0  0  0
   -0.6819   -7.4392    0.0000 O   0  0  0  0  0  0  0  0  0  0  0  0
   -1.8373   -5.6601    0.0000 N   0  0  0  0  0  0  0  0  0  0  0  0
   -2.9520   -4.6564    0.0000 C   0  0  0  0  0  0  0  0  0  0  0  0
   -2.6401   -3.1891    0.0000 C   0  0  0  0  0  0  0  0  0  0  0  0
   -1.2135   -2.7256    0.0000 C   0  0  0  0  0  0  0  0  0  0  0  0
   -0.0000   -3.6073    0.0000 C   0  0  0  0  0  0  0  0  0  0  0  0
    1.2135   -2.7256    0.0000 N   0  0  0  0  0  0  0  0  0  0  0  0
    0.7500   -1.2990    0.0000 C   0  0  0  0  0  0  0  0  0  0  0  0
    1.5000    0.0000    0.0000 C   0  0  0  0  0  0  0  0  0  0  0  0
    0.7500    1.2990    0.0000 C   0  0  0  0  0  0  0  0  0  0  0  0
   -0.7500    1.2990    0.0000 C   0  0  0  0  0  0  0  0  0  0  0  0
   -1.5000    0.0000    0.0000 C   0  0  0  0  0  0  0  0  0  0  0  0
   -0.7500   -1.2990    0.0000 C   0  0  0  0  0  0  0  0  0  0  0  0
   -4.3786   -5.1199    0.0000 C   0  0  0  0  0  0  0  0  0  0  0  0
   -4.6904   -6.5871    0.0000 O   0  0  0  0  0  0  0  0  0  0  0  0
   -5.4933   -4.1162    0.0000 O   0  0  0  0  0  0  0  0  0  0  0  0
   -1.4573   -9.7092    0.0000 S   0  0  0  0  0  0  0  0  0  0  0  0
    1.1148  -15.2760    0.0000 C   0  0  0  0  0  0  0  0  0  0  0  0
    1.7249  -16.6463    0.0000 C   0  0  0  0  0  0  0  0  0  0  0  0
  1  2  1  0
  2  3  2  0
  3  4  1  0
  4  5  2  0
  5  6  1  0
  6  7  3  0
  7  8  1  0
  8  9  2  0
  9 10  1  0
 10 11  2  0
 11 12  1  0
 12 13  2  0
 12 14  2  0
 12 15  1  0
 15 16  1  0
 16 17  1  0
 17 18  1  0
 18 19  2  0
 19 20  1  0
 20 21  1  0
 21 22  2  0
 22 23  1  0
 23 24  2  0
 24 25  1  0
 25 26  2  0
 16 27  1  0
 27 28  2  0
 27 29  1  0
 11 30  1  0
  5 31  1  0
 31 32  2  0
 32  2  1  0
 30  8  1  0
 26 18  1  0
 26 21  1  0
M  END
>  <Synonyms>  (140) 
S 3304|S-3304

>  <Research Codes>  (140) 
nan

>  <Phase>  (140) 
1

>  <Applicants>  (140) 
nan

>  <USAN Stem>  (140) 
nan

>  <USAN Year>  (140) 
nan

>  <USAN Stem Definition>  (140) 
nan

>  <USAN Stem Substem>  (140) 
nan

>  <First Approval>  (140) 
nan

>  <ATC Codes>  (140) 
nan

>  <Level 4 ATC Codes>  (140) 
nan

>  <Level 3 ATC Codes>  (140) 
nan

>  <Level 2 ATC Codes>  (140) 
nan

>  <Level 1 ATC Codes>  (140) 
nan

>  <Indication Class>  (140) 
nan

>  <Patent>  (140) 
nan

>  <Drug Type>  (140) 
1:Synthetic Small Molecule

>  <Passes Rule of Five>  (140) 
True

>  <First In Class>  (140) 
False

>  <Chirality>  (140) 
Single Stereoisomer

>  <Prodrug>  (140) 
False

>  <Oral>  (140) 
False

>  <Parenteral>  (140) 
False

>  <Topical>  (140) 
False

>  <Black Box>  (140) 
False

>  <Availability Type>  (140) 
Unknown

>  <Withdrawn Year>  (140) 
nan

>  <Withdrawn Reason>  (140) 
nan

>  <Withdrawn Country>  (140) 
nan

>  <Withdrawn Class>  (140) 
nan

>  <SMILES>  (140) 
Cc1ccc(C#Cc2ccc(S(=O)(=O)N[C@H](Cc3c[nH]c4ccccc34)C(=O)O)s2)cc1

>  <InChi Key>  (140) 
YWCLDDLVLSQGSZ-UHFFFAOYSA-N

$$$$
CHEMBL2105032
     RDKit          2D

 32 34  0  0  0  0  0  0  0  0999 V2000
    6.3579  -11.0239    0.0000 C   0  0  0  0  0  0  0  0  0  0  0  0
    6.2011   -9.5322    0.0000 O   0  0  0  0  0  0  0  0  0  0  0  0
    4.8308   -8.9221    0.0000 C   0  0  0  0  0  0  0  0  0  0  0  0
    3.6172   -9.8037    0.0000 O   0  0  0  0  0  0  0  0  0  0  0  0
    4.6740   -7.4303    0.0000 C   0  0  0  0  0  0  0  0  0  0  0  0
    3.3037   -6.8202    0.0000 C   0  0  0  0  0  0  0  0  0  0  0  0
    2.9918   -5.3529    0.0000 C   0  0  0  0  0  0  0  0  0  0  0  0
    1.5000   -5.1962    0.0000 C   0  0  0  0  0  0  0  0  0  0  0  0
    0.7500   -3.8971    0.0000 C   0  0  0  0  0  0  0  0  0  0  0  0
    1.5000   -2.5981    0.0000 O   0  0  0  0  0  0  0  0  0  0  0  0
    0.7500   -1.2990    0.0000 C   0  0  0  0  0  0  0  0  0  0  0  0
    1.5000    0.0000    0.0000 C   0  0  0  0  0  0  0  0  0  0  0  0
    0.7500    1.2990    0.0000 C   0  0  0  0  0  0  0  0  0  0  0  0
   -0.7500    1.2990    0.0000 C   0  0  0  0  0  0  0  0  0  0  0  0
   -1.5000    2.5981    0.0000 C   0  0  0  0  0  0  0  0  0  0  0  0
   -0.7500    3.8971    0.0000 C   0  0  0  0  0  0  0  0  0  0  0  0
   -1.5000    5.1962    0.0000 C   0  0  0  0  0  0  0  0  0  0  0  0
   -3.0000    5.1962    0.0000 C   0  0  0  0  0  0  0  0  0  0  0  0
   -3.7500    6.4952    0.0000 C   0  0  0  0  0  0  0  0  0  0  0  0
   -3.0000    7.7942    0.0000 N   0  0  0  0  0  0  0  0  0  0  0  0
   -5.2500    6.4952    0.0000 N   0  0  0  0  0  0  0  0  0  0  0  0
   -6.0000    7.7942    0.0000 C   0  0  0  0  0  0  0  0  0  0  0  0
   -5.2500    9.0933    0.0000 O   0  0  0  0  0  0  0  0  0  0  0  0
   -7.5000    7.7942    0.0000 O   0  0  0  0  0  0  0  0  0  0  0  0
   -8.2500    9.0933    0.0000 C   0  0  0  0  0  0  0  0  0  0  0  0
   -3.7500    3.8971    0.0000 C   0  0  0  0  0  0  0  0  0  0  0  0
   -3.0000    2.5981    0.0000 C   0  0  0  0  0  0  0  0  0  0  0  0
   -1.5000    0.0000    0.0000 C   0  0  0  0  0  0  0  0  0  0  0  0
   -0.7500   -1.2990    0.0000 C   0  0  0  0  0  0  0  0  0  0  0  0
    0.8899   -6.5665    0.0000 N   0  0  0  0  0  0  0  0  0  0  0  0
    2.0046   -7.5702    0.0000 C   0  0  0  0  0  0  0  0  0  0  0  0
    1.8478   -9.0619    0.0000 O   0  0  0  0  0  0  0  0  0  0  0  0
  1  2  1  0
  2  3  1  0
  3  4  2  0
  3  5  1  0
  5  6  1  0
  6  7  1  0
  7  8  1  0
  8  9  1  6
  9 10  1  0
 10 11  1  0
 11 12  2  0
 12 13  1  0
 13 14  2  0
 14 15  1  0
 15 16  2  0
 16 17  1  0
 17 18  2  0
 18 19  1  0
 19 20  2  0
 19 21  1  0
 21 22  1  0
 22 23  2  0
 22 24  1  0
 24 25  1  0
 18 26  1  0
 26 27  2  0
 14 28  1  0
 28 29  2  0
  8 30  1  0
 30 31  1  0
 31 32  2  0
 31  6  1  0
 29 11  1  0
 27 15  1  0
M  END
>  <Synonyms>  (141) 
LEFRADAFIBAN

>  <Research Codes>  (141) 
nan

>  <Phase>  (141) 
1

>  <Applicants>  (141) 
nan

>  <USAN Stem>  (141) 
'-fiban'

>  <USAN Year>  (141) 
nan

>  <USAN Stem Definition>  (141) 
fibrinogen receptor antagonists (glycoprotein IIb/IIIa receptor antagonists)

>  <USAN Stem Substem>  (141) 
'-fiban(-fiban)'

>  <First Approval>  (141) 
nan

>  <ATC Codes>  (141) 
nan

>  <Level 4 ATC Codes>  (141) 
nan

>  <Level 3 ATC Codes>  (141) 
nan

>  <Level 2 ATC Codes>  (141) 
nan

>  <Level 1 ATC Codes>  (141) 
nan

>  <Indication Class>  (141) 
nan

>  <Patent>  (141) 
nan

>  <Drug Type>  (141) 
1:Synthetic Small Molecule

>  <Passes Rule of Five>  (141) 
True

>  <First In Class>  (141) 
False

>  <Chirality>  (141) 
Single Stereoisomer

>  <Prodrug>  (141) 
False

>  <Oral>  (141) 
False

>  <Parenteral>  (141) 
False

>  <Topical>  (141) 
False

>  <Black Box>  (141) 
False

>  <Availability Type>  (141) 
Unknown

>  <Withdrawn Year>  (141) 
nan

>  <Withdrawn Reason>  (141) 
nan

>  <Withdrawn Country>  (141) 
nan

>  <Withdrawn Class>  (141) 
nan

>  <SMILES>  (141) 
COC(=O)C[C@@H]1C[C@@H](COc2ccc(-c3ccc(C(=N)NC(=O)OC)cc3)cc2)NC1=O

>  <InChi Key>  (141) 
PGCFXITVMNNKON-ZVAWYAOSSA-N

$$$$
CHEMBL469449
     RDKit          2D

 11 11  0  0  0  0  0  0  0  0999 V2000
    3.0000    0.0000    0.0000 C   0  0  0  0  0  0  0  0  0  0  0  0
    1.5000    0.0000    0.0000 C   0  0  0  0  0  0  0  0  0  0  0  0
    0.7500   -1.2990    0.0000 O   0  0  0  0  0  0  0  0  0  0  0  0
   -0.7500   -1.2990    0.0000 C   0  0  0  0  0  0  0  0  0  0  0  0
   -1.5000   -2.5981    0.0000 O   0  0  0  0  0  0  0  0  0  0  0  0
   -1.5000    0.0000    0.0000 C   0  0  0  0  0  0  0  0  0  0  0  0
   -3.0000    0.0000    0.0000 O   0  0  0  0  0  0  0  0  0  0  0  0
   -0.7500    1.2990    0.0000 C   0  0  0  0  0  0  0  0  0  0  0  0
   -1.5000    2.5981    0.0000 O   0  0  0  0  0  0  0  0  0  0  0  0
    0.7500    1.2990    0.0000 C   0  0  0  0  0  0  0  0  0  0  0  0
    1.5000    2.5981    0.0000 O   0  0  0  0  0  0  0  0  0  0  0  0
  2  1  1  6
  2  3  1  0
  3  4  1  0
  4  5  1  0
  4  6  1  0
  6  7  1  1
  6  8  1  0
  8  9  1  6
  8 10  1  0
 10 11  1  6
 10  2  1  0
M  END
>  <Synonyms>  (142) 
L-FUCOSE|L-Fucose

>  <Research Codes>  (142) 
nan

>  <Phase>  (142) 
1

>  <Applicants>  (142) 
nan

>  <USAN Stem>  (142) 
nan

>  <USAN Year>  (142) 
nan

>  <USAN Stem Definition>  (142) 
nan

>  <USAN Stem Substem>  (142) 
nan

>  <First Approval>  (142) 
nan

>  <ATC Codes>  (142) 
nan

>  <Level 4 ATC Codes>  (142) 
nan

>  <Level 3 ATC Codes>  (142) 
nan

>  <Level 2 ATC Codes>  (142) 
nan

>  <Level 1 ATC Codes>  (142) 
nan

>  <Indication Class>  (142) 
nan

>  <Patent>  (142) 
nan

>  <Drug Type>  (142) 
7:Natural Product-derived

>  <Passes Rule of Five>  (142) 
True

>  <First In Class>  (142) 
False

>  <Chirality>  (142) 
Single Stereoisomer

>  <Prodrug>  (142) 
False

>  <Oral>  (142) 
False

>  <Parenteral>  (142) 
False

>  <Topical>  (142) 
False

>  <Black Box>  (142) 
False

>  <Availability Type>  (142) 
Unknown

>  <Withdrawn Year>  (142) 
nan

>  <Withdrawn Reason>  (142) 
nan

>  <Withdrawn Country>  (142) 
nan

>  <Withdrawn Class>  (142) 
nan

>  <SMILES>  (142) 
C[C@@H]1OC(O)[C@@H](O)[C@H](O)[C@@H]1O

>  <InChi Key>  (142) 
SHZGCJCMOBCMKK-DHVFOXMCSA-N

$$$$
CHEMBL2364601
     RDKit          2D

 33 35  0  0  0  0  0  0  0  0999 V2000
   17.2500   -9.0933    0.0000 C   0  0  0  0  0  0  0  0  0  0  0  0
   16.5000   -7.7942    0.0000 O   0  0  0  0  0  0  0  0  0  0  0  0
   15.0000   -7.7942    0.0000 C   0  0  0  0  0  0  0  0  0  0  0  0
   14.2500   -6.4952    0.0000 C   0  0  0  0  0  0  0  0  0  0  0  0
   12.7500   -6.4952    0.0000 O   0  0  0  0  0  0  0  0  0  0  0  0
   12.0000   -5.1962    0.0000 C   0  0  0  0  0  0  0  0  0  0  0  0
   10.5000   -5.1962    0.0000 C   0  0  0  0  0  0  0  0  0  0  0  0
    9.7500   -3.8971    0.0000 O   0  0  0  0  0  0  0  0  0  0  0  0
    8.2500   -3.8971    0.0000 C   0  0  0  0  0  0  0  0  0  0  0  0
    7.5000   -2.5981    0.0000 C   0  0  0  0  0  0  0  0  0  0  0  0
    6.0000   -2.5981    0.0000 O   0  0  0  0  0  0  0  0  0  0  0  0
    5.2500   -1.2990    0.0000 C   0  0  0  0  0  0  0  0  0  0  0  0
    6.0000    0.0000    0.0000 O   0  0  0  0  0  0  0  0  0  0  0  0
    3.7500   -1.2990    0.0000 C   0  0  0  0  0  0  0  0  0  0  0  0
    3.0000   -2.5981    0.0000 C   0  0  0  0  0  0  0  0  0  0  0  0
    2.2500   -3.8971    0.0000 N   0  0  0  0  0  0  0  0  0  0  0  0
    3.0000    0.0000    0.0000 C   0  0  0  0  0  0  0  0  0  0  0  0
    1.5000    0.0000    0.0000 C   0  0  0  0  0  0  0  0  0  0  0  0
    0.7500   -1.2990    0.0000 C   0  0  0  0  0  0  0  0  0  0  0  0
   -0.7500   -1.2990    0.0000 C   0  0  0  0  0  0  0  0  0  0  0  0
   -1.5000    0.0000    0.0000 C   0  0  0  0  0  0  0  0  0  0  0  0
   -3.0000    0.0000    0.0000 C   0  0  0  0  0  0  0  0  0  0  0  0
   -3.7500    1.2990    0.0000 C   0  0  0  0  0  0  0  0  0  0  0  0
   -5.2500    1.2990    0.0000 N   0  0  0  0  0  0  0  0  0  0  0  0
   -6.0000    2.5981    0.0000 C   0  0  0  0  0  0  0  0  0  0  0  0
   -7.5000    2.5981    0.0000 C   0  0  0  0  0  0  0  0  0  0  0  0
   -8.2500    1.2990    0.0000 C   0  0  0  0  0  0  0  0  0  0  0  0
   -7.5000    0.0000    0.0000 C   0  0  0  0  0  0  0  0  0  0  0  0
   -6.0000    0.0000    0.0000 C   0  0  0  0  0  0  0  0  0  0  0  0
   -3.0000    2.5981    0.0000 C   0  0  0  0  0  0  0  0  0  0  0  0
   -1.5000    2.5981    0.0000 C   0  0  0  0  0  0  0  0  0  0  0  0
   -0.7500    1.2990    0.0000 C   0  0  0  0  0  0  0  0  0  0  0  0
    0.7500    1.2990    0.0000 C   0  0  0  0  0  0  0  0  0  0  0  0
  1  2  1  0
  2  3  1  0
  3  4  1  0
  4  5  1  0
  5  6  1  0
  6  7  1  0
  7  8  1  0
  8  9  1  0
  9 10  1  0
 10 11  1  0
 11 12  1  0
 12 13  2  0
 12 14  1  0
 14 15  1  0
 15 16  3  0
 14 17  2  0
 17 18  1  0
 18 19  2  0
 19 20  1  0
 20 21  2  0
 21 22  1  0
 22 23  2  0
 23 24  1  0
 24 25  1  0
 25 26  1  0
 26 27  1  0
 27 28  1  0
 28 29  1  0
 23 30  1  0
 30 31  2  0
 31 32  1  0
 32 33  2  0
 33 18  1  0
 32 21  1  0
 29 24  1  0
M  END
>  <Synonyms>  (143) 
11|AFTOBETIN|ANCA-11|ANCA11|COMPOUND 11

>  <Research Codes>  (143) 
11|ANCA-11|ANCA11|Compound 11

>  <Phase>  (143) 
1

>  <Applicants>  (143) 
nan

>  <USAN Stem>  (143) 
'-betin'

>  <USAN Year>  (143) 
2013.0

>  <USAN Stem Definition>  (143) 
amyloid beta binders

>  <USAN Stem Substem>  (143) 
'-betin(-betin)'

>  <First Approval>  (143) 
nan

>  <ATC Codes>  (143) 
nan

>  <Level 4 ATC Codes>  (143) 
nan

>  <Level 3 ATC Codes>  (143) 
nan

>  <Level 2 ATC Codes>  (143) 
nan

>  <Level 1 ATC Codes>  (143) 
nan

>  <Indication Class>  (143) 
nan

>  <Patent>  (143) 
nan

>  <Drug Type>  (143) 
1:Synthetic Small Molecule

>  <Passes Rule of Five>  (143) 
True

>  <First In Class>  (143) 
False

>  <Chirality>  (143) 
Achiral Molecule

>  <Prodrug>  (143) 
False

>  <Oral>  (143) 
False

>  <Parenteral>  (143) 
False

>  <Topical>  (143) 
False

>  <Black Box>  (143) 
False

>  <Availability Type>  (143) 
Unknown

>  <Withdrawn Year>  (143) 
nan

>  <Withdrawn Reason>  (143) 
nan

>  <Withdrawn Country>  (143) 
nan

>  <Withdrawn Class>  (143) 
nan

>  <SMILES>  (143) 
COCCOCCOCCOC(=O)/C(C#N)=C/c1ccc2cc(N3CCCCC3)ccc2c1

>  <InChi Key>  (143) 
NRZNTGUFHSJBTD-HKOYGPOVSA-N

$$$$
CHEMBL2364667
     RDKit          2D

 94 97  0  0  0  0  0  0  0  0999 V2000
   -4.8177  -13.3583    0.0000 C   0  0  0  0  0  0  0  0  0  0  0  0
   -5.2813  -11.9317    0.0000 C   0  0  0  0  0  0  0  0  0  0  0  0
   -6.7485  -11.6198    0.0000 C   0  0  0  0  0  0  0  0  0  0  0  0
   -7.7522  -12.7345    0.0000 C   0  0  0  0  0  0  0  0  0  0  0  0
   -7.2120  -10.1932    0.0000 C   0  0  0  0  0  0  0  0  0  0  0  0
   -6.2083   -9.0785    0.0000 C   0  0  0  0  0  0  0  0  0  0  0  0
   -6.6718   -7.6519    0.0000 C   0  0  0  0  0  0  0  0  0  0  0  0
   -5.6682   -6.5372    0.0000 C   0  0  0  0  0  0  0  0  0  0  0  0
   -4.2499   -7.0256    0.0000 O   0  0  0  0  0  0  0  0  0  0  0  0
   -6.1317   -5.1106    0.0000 N   0  0  0  0  0  0  0  0  0  0  0  0
   -7.5583   -4.6471    0.0000 C   0  0  0  0  0  0  0  0  0  0  0  0
   -7.5583   -3.1471    0.0000 C   0  0  0  0  0  0  0  0  0  0  0  0
   -6.1317   -2.6836    0.0000 C   0  0  0  0  0  0  0  0  0  0  0  0
   -5.2500   -3.8971    0.0000 C   0  0  0  0  0  0  0  0  0  0  0  0
   -3.7500   -3.8971    0.0000 C   0  0  0  0  0  0  0  0  0  0  0  0
   -3.0000   -2.5981    0.0000 O   0  0  0  0  0  0  0  0  0  0  0  0
   -3.7500   -1.2990    0.0000 C   0  0  0  0  0  0  0  0  0  0  0  0
   -3.0000   -5.1962    0.0000 C   0  0  0  0  0  0  0  0  0  0  0  0
   -3.5861   -6.5769    0.0000 C   0  0  0  0  0  0  0  0  0  0  0  0
   -1.5000   -5.1962    0.0000 C   0  0  0  0  0  0  0  0  0  0  0  0
   -0.7500   -6.4952    0.0000 O   0  0  0  0  0  0  0  0  0  0  0  0
   -0.7500   -3.8971    0.0000 N   0  0  0  0  0  0  0  0  0  0  0  0
    0.7500   -3.8971    0.0000 C   0  0  0  0  0  0  0  0  0  0  0  0
    1.5000   -5.1962    0.0000 C   0  0  0  0  0  0  0  0  0  0  0  0
    1.5000   -2.5981    0.0000 C   0  0  0  0  0  0  0  0  0  0  0  0
    3.0000   -2.5981    0.0000 O   0  0  0  0  0  0  0  0  0  0  0  0
    0.7500   -1.2990    0.0000 C   0  0  0  0  0  0  0  0  0  0  0  0
    1.5000   -0.0000    0.0000 C   0  0  0  0  0  0  0  0  0  0  0  0
    0.7500    1.2990    0.0000 C   0  0  0  0  0  0  0  0  0  0  0  0
   -0.7500    1.2990    0.0000 C   0  0  0  0  0  0  0  0  0  0  0  0
   -1.5000   -0.0000    0.0000 C   0  0  0  0  0  0  0  0  0  0  0  0
   -0.7500   -1.2990    0.0000 C   0  0  0  0  0  0  0  0  0  0  0  0
   -4.7411   -9.3904    0.0000 O   0  0  0  0  0  0  0  0  0  0  0  0
   -4.2776  -10.8170    0.0000 C   0  0  0  0  0  0  0  0  0  0  0  0
   -8.6792   -9.8814    0.0000 N   0  0  0  0  0  0  0  0  0  0  0  0
   -9.6829  -10.9961    0.0000 C   0  0  0  0  0  0  0  0  0  0  0  0
   -9.1428   -8.4548    0.0000 C   0  0  0  0  0  0  0  0  0  0  0  0
   -8.1391   -7.3401    0.0000 O   0  0  0  0  0  0  0  0  0  0  0  0
  -10.6100   -8.1429    0.0000 C   0  0  0  0  0  0  0  0  0  0  0  0
  -11.6137   -9.2576    0.0000 N   0  0  0  0  0  0  0  0  0  0  0  0
  -13.0809   -8.9458    0.0000 C   0  0  0  0  0  0  0  0  0  0  0  0
  -13.5444   -7.5192    0.0000 O   0  0  0  0  0  0  0  0  0  0  0  0
  -14.0846  -10.0605    0.0000 C   0  0  0  0  0  0  0  0  0  0  0  0
  -15.5518   -9.7486    0.0000 C   0  0  0  0  0  0  0  0  0  0  0  0
  -16.5555  -10.8633    0.0000 C   0  0  0  0  0  0  0  0  0  0  0  0
  -16.0153   -8.3220    0.0000 C   0  0  0  0  0  0  0  0  0  0  0  0
  -13.6211  -11.4871    0.0000 N   0  0  0  0  0  0  0  0  0  0  0  0
  -14.6248  -12.6018    0.0000 C   0  0  0  0  0  0  0  0  0  0  0  0
  -12.1539  -11.7989    0.0000 C   0  0  0  0  0  0  0  0  0  0  0  0
  -11.1502  -10.6842    0.0000 O   0  0  0  0  0  0  0  0  0  0  0  0
  -11.6903  -13.2255    0.0000 O   0  0  0  0  0  0  0  0  0  0  0  0
  -10.2231  -13.5374    0.0000 C   0  0  0  0  0  0  0  0  0  0  0  0
   -9.7596  -14.9640    0.0000 C   0  0  0  0  0  0  0  0  0  0  0  0
  -10.7633  -16.0787    0.0000 C   0  0  0  0  0  0  0  0  0  0  0  0
  -10.2998  -17.5053    0.0000 C   0  0  0  0  0  0  0  0  0  0  0  0
   -8.8325  -17.8171    0.0000 C   0  0  0  0  0  0  0  0  0  0  0  0
   -8.3690  -19.2437    0.0000 N   0  0  0  0  0  0  0  0  0  0  0  0
   -9.3727  -20.3585    0.0000 C   0  0  0  0  0  0  0  0  0  0  0  0
  -10.8399  -20.0466    0.0000 O   0  0  0  0  0  0  0  0  0  0  0  0
   -8.9092  -21.7850    0.0000 C   0  0  0  0  0  0  0  0  0  0  0  0
   -9.9129  -22.8998    0.0000 C   0  0  0  0  0  0  0  0  0  0  0  0
   -9.4493  -24.3263    0.0000 C   0  0  0  0  0  0  0  0  0  0  0  0
  -10.4530  -25.4411    0.0000 C   0  0  0  0  0  0  0  0  0  0  0  0
   -9.9895  -26.8676    0.0000 N   0  0  0  0  0  0  0  0  0  0  0  0
  -10.9932  -27.9824    0.0000 C   0  0  0  0  0  0  0  0  0  0  0  0
  -10.5297  -29.4089    0.0000 N   0  0  0  0  0  0  0  0  0  0  0  0
  -12.4604  -27.6705    0.0000 O   0  0  0  0  0  0  0  0  0  0  0  0
   -7.4420  -22.0969    0.0000 N   0  0  0  0  0  0  0  0  0  0  0  0
   -6.9784  -23.5235    0.0000 C   0  0  0  0  0  0  0  0  0  0  0  0
   -7.9821  -24.6382    0.0000 O   0  0  0  0  0  0  0  0  0  0  0  0
   -5.5112  -23.8354    0.0000 C   0  0  0  0  0  0  0  0  0  0  0  0
   -4.5075  -22.7206    0.0000 N   0  0  0  0  0  0  0  0  0  0  0  0
   -3.0403  -23.0325    0.0000 C   0  0  0  0  0  0  0  0  0  0  0  0
   -2.5768  -24.4591    0.0000 O   0  0  0  0  0  0  0  0  0  0  0  0
   -2.0366  -21.9178    0.0000 C   0  0  0  0  0  0  0  0  0  0  0  0
   -0.5694  -22.2297    0.0000 C   0  0  0  0  0  0  0  0  0  0  0  0
    0.4343  -21.1149    0.0000 C   0  0  0  0  0  0  0  0  0  0  0  0
    1.9015  -21.4268    0.0000 C   0  0  0  0  0  0  0  0  0  0  0  0
    2.9052  -20.3121    0.0000 C   0  0  0  0  0  0  0  0  0  0  0  0
    4.3725  -20.6240    0.0000 N   0  0  0  0  0  0  0  0  0  0  0  0
    5.4872  -19.6203    0.0000 C   0  0  0  0  0  0  0  0  0  0  0  0
    5.3304  -18.1285    0.0000 O   0  0  0  0  0  0  0  0  0  0  0  0
    6.7862  -20.3703    0.0000 C   0  0  0  0  0  3  0  0  0  0  0  0
    6.4744  -21.8375    0.0000 C   0  0  0  0  0  0  0  0  0  0  0  0
    4.9826  -21.9943    0.0000 C   0  0  0  0  0  0  0  0  0  0  0  0
    4.2326  -23.2933    0.0000 O   0  0  0  0  0  0  0  0  0  0  0  0
   -5.0477  -25.2619    0.0000 C   0  0  0  0  0  0  0  0  0  0  0  0
   -3.5805  -25.5738    0.0000 C   0  0  0  0  0  0  0  0  0  0  0  0
   -6.0514  -26.3767    0.0000 C   0  0  0  0  0  0  0  0  0  0  0  0
   -7.8288  -16.7024    0.0000 C   0  0  0  0  0  0  0  0  0  0  0  0
   -8.2924  -15.2758    0.0000 C   0  0  0  0  0  0  0  0  0  0  0  0
  -11.0735   -6.7163    0.0000 C   0  0  0  0  0  0  0  0  0  0  0  0
  -12.5407   -6.4045    0.0000 C   0  0  0  0  0  0  0  0  0  0  0  0
  -10.0698   -5.6016    0.0000 C   0  0  0  0  0  0  0  0  0  0  0  0
  1  2  1  0
  2  3  1  0
  3  4  1  6
  3  5  1  0
  5  6  1  0
  6  7  1  1
  7  8  1  0
  8  9  2  0
  8 10  1  0
 10 11  1  0
 11 12  1  0
 12 13  1  0
 14 13  1  1
 14 15  1  0
 15 16  1  6
 16 17  1  0
 15 18  1  0
 18 19  1  0
 18 20  1  0
 20 21  2  0
 20 22  1  0
 22 23  1  0
 23 24  1  1
 23 25  1  0
 25 26  1  6
 25 27  1  0
 27 28  2  0
 28 29  1  0
 29 30  2  0
 30 31  1  0
 31 32  2  0
  6 33  1  0
 33 34  1  0
  5 35  1  6
 35 36  1  0
 35 37  1  0
 37 38  2  0
 37 39  1  0
 39 40  1  1
 40 41  1  0
 41 42  2  0
 43 41  1  1
 43 44  1  0
 44 45  1  0
 44 46  1  0
 43 47  1  0
 47 48  1  0
 47 49  1  0
 49 50  2  0
 49 51  1  0
 51 52  1  0
 52 53  1  0
 53 54  2  0
 54 55  1  0
 55 56  2  0
 56 57  1  0
 57 58  1  0
 58 59  2  0
 58 60  1  0
 60 61  1  1
 61 62  1  0
 62 63  1  0
 63 64  1  0
 64 65  1  0
 65 66  1  0
 65 67  2  0
 60 68  1  0
 68 69  1  0
 69 70  2  0
 69 71  1  0
 71 72  1  1
 72 73  1  0
 73 74  2  0
 73 75  1  0
 75 76  1  0
 76 77  1  0
 77 78  1  0
 78 79  1  0
 79 80  1  0
 80 81  1  0
 81 82  1  0
 81 83  2  0
 83 84  1  0
 84 85  2  0
 85 86  1  0
 71 87  1  0
 87 88  1  0
 87 89  1  0
 56 90  1  0
 90 91  2  0
 39 92  1  0
 92 93  1  0
 92 94  1  0
 14 10  1  0
 32 27  1  0
 91 53  1  0
 85 80  1  0
M  RAD  1  83   2
M  END
>  <Synonyms>  (144) 
CONJUGATED FORM OF MC-VC-PAB-MMAE|MMAE|MONOMETHYL AURISTATIN E|PAB-MMAE|VEDOTIN

>  <Research Codes>  (144) 
Conjugated form of MC-VC-PAB-MMAE|MMAE|Monomethyl Auristatin E|PAB-MMAE

>  <Phase>  (144) 
1

>  <Applicants>  (144) 
nan

>  <USAN Stem>  (144) 
'-dotin'

>  <USAN Year>  (144) 
2009.0

>  <USAN Stem Definition>  (144) 
synthetic analogs of the dolastatin series

>  <USAN Stem Substem>  (144) 
'-dotin(-dotin)'

>  <First Approval>  (144) 
nan

>  <ATC Codes>  (144) 
nan

>  <Level 4 ATC Codes>  (144) 
nan

>  <Level 3 ATC Codes>  (144) 
nan

>  <Level 2 ATC Codes>  (144) 
nan

>  <Level 1 ATC Codes>  (144) 
nan

>  <Indication Class>  (144) 
nan

>  <Patent>  (144) 
nan

>  <Drug Type>  (144) 
1:Synthetic Small Molecule

>  <Passes Rule of Five>  (144) 
False

>  <First In Class>  (144) 
False

>  <Chirality>  (144) 
Single Stereoisomer

>  <Prodrug>  (144) 
False

>  <Oral>  (144) 
False

>  <Parenteral>  (144) 
False

>  <Topical>  (144) 
False

>  <Black Box>  (144) 
False

>  <Availability Type>  (144) 
Unknown

>  <Withdrawn Year>  (144) 
nan

>  <Withdrawn Reason>  (144) 
nan

>  <Withdrawn Country>  (144) 
nan

>  <Withdrawn Class>  (144) 
nan

>  <SMILES>  (144) 
CC[C@H](C)[C@@H]([C@@H](CC(=O)N1CCC[C@H]1[C@H](OC)[C@@H](C)C(=O)N[C@H](C)[C@@H](O)c1ccccc1)OC)N(C)C(=O)[C@@H](NC(=O)[C@H](C(C)C)N(C)C(=O)OCc1ccc(NC(=O)[C@H](CCCNC(N)=O)NC(=O)[C@@H](NC(=O)CCCCCN2C(=O)[CH]CC2=O)C(C)C)cc1)C(C)C

>  <InChi Key>  (144) 
YQRQHNRWYSBNOG-XHMHPSENSA-N

$$$$
CHEMBL2179582
     RDKit          2D

 31 34  0  0  0  0  0  0  0  0999 V2000
   -1.9635   -4.0247    0.0000 C   0  0  0  0  0  0  0  0  0  0  0  0
   -1.2135   -2.7256    0.0000 C   0  0  0  0  0  0  0  0  0  0  0  0
   -2.5838   -2.1155    0.0000 C   0  0  0  0  0  0  0  0  0  0  0  0
   -0.0000   -3.6073    0.0000 C   0  0  0  0  0  0  0  0  0  0  0  0
   -0.0000   -5.1073    0.0000 O   0  0  0  0  0  0  0  0  0  0  0  0
    1.2135   -2.7256    0.0000 N   0  0  0  0  0  0  0  0  0  0  0  0
    2.6401   -3.1891    0.0000 C   0  0  0  0  0  0  0  0  0  0  0  0
    3.7548   -2.1855    0.0000 O   0  0  0  0  0  0  0  0  0  0  0  0
    2.9520   -4.6564    0.0000 N   0  0  0  0  0  0  0  0  0  0  0  0
    4.3786   -5.1199    0.0000 C   0  0  0  0  0  0  0  0  0  0  0  0
    4.6904   -6.5871    0.0000 C   0  0  0  0  0  0  0  0  0  0  0  0
    3.5757   -7.5908    0.0000 C   0  0  0  0  0  0  0  0  0  0  0  0
    3.8876   -9.0580    0.0000 C   0  0  0  0  0  0  0  0  0  0  0  0
    5.3142   -9.5216    0.0000 N   0  0  0  0  0  0  0  0  0  0  0  0
    5.6260  -10.9888    0.0000 C   0  0  0  0  0  0  0  0  0  0  0  0
    4.5113  -11.9925    0.0000 C   0  0  0  0  0  0  0  0  0  0  0  0
    3.7164  -10.7204    0.0000 O   0  0  0  0  0  0  0  0  0  0  0  0
    5.6933  -12.9160    0.0000 C   0  0  0  0  0  0  0  0  0  0  0  0
    5.4846  -14.4014    0.0000 C   0  0  0  0  0  0  0  0  0  0  0  0
    4.0938  -14.9633    0.0000 O   0  0  0  0  0  0  0  0  0  0  0  0
    2.9118  -14.0398    0.0000 C   0  0  0  0  0  0  0  0  0  0  0  0
    3.1205  -12.5544    0.0000 C   0  0  0  0  0  0  0  0  0  0  0  0
    6.4289   -8.5179    0.0000 C   0  0  0  0  0  0  0  0  0  0  0  0
    6.1170   -7.0506    0.0000 C   0  0  0  0  0  0  0  0  0  0  0  0
    0.7500   -1.2990    0.0000 C   0  0  0  0  0  0  0  0  0  0  0  0
    1.5000    0.0000    0.0000 C   0  0  0  0  0  0  0  0  0  0  0  0
    0.7500    1.2990    0.0000 C   0  0  0  0  0  0  0  0  0  0  0  0
    1.5000    2.5981    0.0000 F   0  0  0  0  0  0  0  0  0  0  0  0
   -0.7500    1.2990    0.0000 C   0  0  0  0  0  0  0  0  0  0  0  0
   -1.5000    0.0000    0.0000 C   0  0  0  0  0  0  0  0  0  0  0  0
   -0.7500   -1.2990    0.0000 C   0  0  0  0  0  0  0  0  0  0  0  0
  1  2  1  0
  2  3  1  0
  2  4  1  0
  4  5  2  0
  4  6  1  0
  6  7  1  0
  7  8  2  0
  7  9  1  0
  9 10  1  0
 10 11  1  0
 11 12  1  0
 12 13  1  0
 13 14  1  0
 14 15  1  0
 15 16  1  0
 16 17  1  0
 16 18  1  0
 18 19  1  0
 19 20  1  0
 20 21  1  0
 21 22  1  0
 14 23  1  0
 23 24  1  0
  6 25  1  0
 25 26  2  0
 26 27  1  0
 27 28  1  0
 27 29  2  0
 29 30  1  0
 30 31  2  0
 31  2  1  0
 24 11  1  0
 31 25  1  0
 22 16  1  0
M  END
>  <Synonyms>  (145) 
PF-03382792

>  <Research Codes>  (145) 
nan

>  <Phase>  (145) 
1

>  <Applicants>  (145) 
nan

>  <USAN Stem>  (145) 
nan

>  <USAN Year>  (145) 
nan

>  <USAN Stem Definition>  (145) 
nan

>  <USAN Stem Substem>  (145) 
nan

>  <First Approval>  (145) 
nan

>  <ATC Codes>  (145) 
nan

>  <Level 4 ATC Codes>  (145) 
nan

>  <Level 3 ATC Codes>  (145) 
nan

>  <Level 2 ATC Codes>  (145) 
nan

>  <Level 1 ATC Codes>  (145) 
nan

>  <Indication Class>  (145) 
nan

>  <Patent>  (145) 
nan

>  <Drug Type>  (145) 
1:Synthetic Small Molecule

>  <Passes Rule of Five>  (145) 
True

>  <First In Class>  (145) 
False

>  <Chirality>  (145) 
Achiral Molecule

>  <Prodrug>  (145) 
False

>  <Oral>  (145) 
False

>  <Parenteral>  (145) 
False

>  <Topical>  (145) 
False

>  <Black Box>  (145) 
False

>  <Availability Type>  (145) 
Unknown

>  <Withdrawn Year>  (145) 
nan

>  <Withdrawn Reason>  (145) 
nan

>  <Withdrawn Country>  (145) 
nan

>  <Withdrawn Class>  (145) 
nan

>  <SMILES>  (145) 
CC1(C)C(=O)N(C(=O)NCC2CCN(CC3(O)CCOCC3)CC2)c2cc(F)ccc21

>  <InChi Key>  (145) 
AGMOFKKOVMRGAK-UHFFFAOYSA-N

$$$$
CHEMBL1201390
     RDKit          2D

 29 32  0  0  0  0  0  0  0  0999 V2000
   -4.4998   -5.1699    0.0000 C   0  0  0  0  0  0  0  0  0  0  0  0
   -3.0000   -5.1962    0.0000 C   0  0  0  0  0  0  0  0  0  0  0  0
   -3.7500   -3.8971    0.0000 C   0  0  0  0  0  0  0  0  0  0  0  0
   -3.0000   -2.5981    0.0000 C   0  0  0  0  0  0  0  0  0  0  0  0
   -3.7500   -1.2990    0.0000 O   0  0  0  0  0  0  0  0  0  0  0  0
   -1.5000   -2.5981    0.0000 C   0  0  0  0  0  0  0  0  0  0  0  0
   -2.0331   -1.8907    0.0000 F   0  0  0  0  0  0  0  0  0  0  0  0
   -0.7500   -3.8971    0.0000 C   0  0  0  0  0  0  0  0  0  0  0  0
    0.7500   -3.8971    0.0000 C   0  0  0  0  0  0  0  0  0  0  0  0
    1.5000   -2.5981    0.0000 C   0  0  0  0  0  0  0  0  0  0  0  0
    3.0000   -2.5981    0.0000 F   0  0  0  0  0  0  0  0  0  0  0  0
    0.7500   -1.2990    0.0000 C   0  0  0  0  0  0  0  0  0  0  0  0
    1.5000    0.0000    0.0000 C   0  0  0  0  0  0  0  0  0  0  0  0
    0.7500    1.2990    0.0000 C   0  0  0  0  0  0  0  0  0  0  0  0
    1.5000    2.5981    0.0000 O   0  0  0  0  0  0  0  0  0  0  0  0
   -0.7500    1.2990    0.0000 C   0  0  0  0  0  0  0  0  0  0  0  0
   -1.5000    0.0000    0.0000 C   0  0  0  0  0  0  0  0  0  0  0  0
   -0.7500   -1.2990    0.0000 C   0  0  0  0  0  0  0  0  0  0  0  0
   -1.6291   -1.1911    0.0000 C   0  0  0  0  0  0  0  0  0  0  0  0
   -1.5000   -5.1962    0.0000 C   0  0  0  0  0  0  0  0  0  0  0  0
   -1.0365   -6.6227    0.0000 C   0  0  0  0  0  0  0  0  0  0  0  0
   -2.2500   -7.5044    0.0000 C   0  0  0  0  0  0  0  0  0  0  0  0
   -2.2500   -9.0044    0.0000 O   0  0  0  0  0  0  0  0  0  0  0  0
   -3.4635   -6.6227    0.0000 C   0  0  0  0  0  0  0  0  0  0  0  0
   -4.8980   -6.1842    0.0000 O   0  0  0  0  0  0  0  0  0  0  0  0
   -4.2135   -7.9218    0.0000 C   0  0  0  0  0  0  0  0  0  0  0  0
   -3.4635   -9.2208    0.0000 O   0  0  0  0  0  0  0  0  0  0  0  0
   -5.7135   -7.9218    0.0000 C   0  0  0  0  0  0  0  0  0  0  0  0
   -6.4635   -9.2208    0.0000 O   0  0  0  0  0  0  0  0  0  0  0  0
  2  1  1  6
  2  3  1  0
  3  4  1  0
  4  5  1  6
  4  6  1  0
  6  7  1  1
  6  8  1  0
  8  9  1  1
  9 10  1  0
 10 11  1  0
 10 12  2  0
 12 13  1  0
 13 14  1  0
 14 15  2  0
 14 16  1  0
 16 17  2  0
 17 18  1  0
 18 19  1  6
  8 20  1  0
 20 21  1  6
 21 22  1  0
 22 23  1  1
 22 24  1  0
 24 25  1  1
 24 26  1  0
 26 27  2  0
 26 28  1  0
 28 29  1  0
 20  2  1  0
 24  2  1  0
 18  6  1  0
 18 12  1  0
M  END
>  <Synonyms>  (146) 
FLUOCINOLONE

>  <Research Codes>  (146) 
nan

>  <Phase>  (146) 
1

>  <Applicants>  (146) 
nan

>  <USAN Stem>  (146) 
'-olone'

>  <USAN Year>  (146) 
nan

>  <USAN Stem Definition>  (146) 
steroids (not prednisolone derivatives)

>  <USAN Stem Substem>  (146) 
'-olone(-olone)'

>  <First Approval>  (146) 
nan

>  <ATC Codes>  (146) 
nan

>  <Level 4 ATC Codes>  (146) 
nan

>  <Level 3 ATC Codes>  (146) 
nan

>  <Level 2 ATC Codes>  (146) 
nan

>  <Level 1 ATC Codes>  (146) 
nan

>  <Indication Class>  (146) 
nan

>  <Patent>  (146) 
nan

>  <Drug Type>  (146) 
7:Natural Product-derived

>  <Passes Rule of Five>  (146) 
True

>  <First In Class>  (146) 
False

>  <Chirality>  (146) 
Single Stereoisomer

>  <Prodrug>  (146) 
False

>  <Oral>  (146) 
False

>  <Parenteral>  (146) 
False

>  <Topical>  (146) 
False

>  <Black Box>  (146) 
False

>  <Availability Type>  (146) 
Unknown

>  <Withdrawn Year>  (146) 
nan

>  <Withdrawn Reason>  (146) 
nan

>  <Withdrawn Country>  (146) 
nan

>  <Withdrawn Class>  (146) 
nan

>  <SMILES>  (146) 
C[C@]12C[C@H](O)[C@@]3(F)[C@@H](C[C@H](F)C4=CC(=O)C=C[C@@]43C)[C@@H]1C[C@@H](O)[C@]2(O)C(=O)CO

>  <InChi Key>  (146) 
QNUPBBONRLURGE-JQVYDPELSA-N

$$$$
CHEMBL7983
     RDKit          2D

 15 15  0  0  0  0  0  0  0  0999 V2000
    7.5000    2.5981    0.0000 C   0  0  0  0  0  0  0  0  0  0  0  0
    6.0000    2.5981    0.0000 C   0  0  0  0  0  0  0  0  0  0  0  0
    5.2500    1.2990    0.0000 C   0  0  0  0  0  0  0  0  0  0  0  0
    3.7500    1.2990    0.0000 O   0  0  0  0  0  0  0  0  0  0  0  0
    3.0000    0.0000    0.0000 C   0  0  0  0  0  0  0  0  0  0  0  0
    3.7500   -1.2990    0.0000 O   0  0  0  0  0  0  0  0  0  0  0  0
    1.5000    0.0000    0.0000 C   0  0  0  0  0  0  0  0  0  0  0  0
    0.7500   -1.2990    0.0000 C   0  0  0  0  0  0  0  0  0  0  0  0
   -0.7500   -1.2990    0.0000 C   0  0  0  0  0  0  0  0  0  0  0  0
   -1.5000   -2.5981    0.0000 O   0  0  0  0  0  0  0  0  0  0  0  0
   -1.5000    0.0000    0.0000 C   0  0  0  0  0  0  0  0  0  0  0  0
   -3.0000    0.0000    0.0000 O   0  0  0  0  0  0  0  0  0  0  0  0
   -0.7500    1.2990    0.0000 C   0  0  0  0  0  0  0  0  0  0  0  0
   -1.5000    2.5981    0.0000 O   0  0  0  0  0  0  0  0  0  0  0  0
    0.7500    1.2990    0.0000 C   0  0  0  0  0  0  0  0  0  0  0  0
  1  2  1  0
  2  3  1  0
  3  4  1  0
  4  5  1  0
  5  6  2  0
  5  7  1  0
  7  8  2  0
  8  9  1  0
  9 10  1  0
  9 11  2  0
 11 12  1  0
 11 13  1  0
 13 14  1  0
 13 15  2  0
 15  7  1  0
M  END
>  <Synonyms>  (147) 
E-310|E310|FEMA NO. 2947|INS NO.310|INS-310|NSC-2626|PROPYL GALLATE

>  <Research Codes>  (147) 
E-310|FEMA NO. 2947|INS NO.310|INS-310|NSC-2626

>  <Phase>  (147) 
1

>  <Applicants>  (147) 
nan

>  <USAN Stem>  (147) 
nan

>  <USAN Year>  (147) 
nan

>  <USAN Stem Definition>  (147) 
nan

>  <USAN Stem Substem>  (147) 
nan

>  <First Approval>  (147) 
nan

>  <ATC Codes>  (147) 
nan

>  <Level 4 ATC Codes>  (147) 
nan

>  <Level 3 ATC Codes>  (147) 
nan

>  <Level 2 ATC Codes>  (147) 
nan

>  <Level 1 ATC Codes>  (147) 
nan

>  <Indication Class>  (147) 
Pharmaceutic Aid (antioxidant)

>  <Patent>  (147) 
nan

>  <Drug Type>  (147) 
1:Synthetic Small Molecule

>  <Passes Rule of Five>  (147) 
True

>  <First In Class>  (147) 
False

>  <Chirality>  (147) 
Achiral Molecule

>  <Prodrug>  (147) 
False

>  <Oral>  (147) 
False

>  <Parenteral>  (147) 
False

>  <Topical>  (147) 
False

>  <Black Box>  (147) 
False

>  <Availability Type>  (147) 
Unknown

>  <Withdrawn Year>  (147) 
nan

>  <Withdrawn Reason>  (147) 
nan

>  <Withdrawn Country>  (147) 
nan

>  <Withdrawn Class>  (147) 
nan

>  <SMILES>  (147) 
CCCOC(=O)c1cc(O)c(O)c(O)c1

>  <InChi Key>  (147) 
ZTHYODDOHIVTJV-UHFFFAOYSA-N

$$$$
CHEMBL447878
     RDKit          2D

 15 15  0  0  0  0  0  0  0  0999 V2000
    5.2500   -1.2990    0.0000 C   0  0  0  0  0  0  0  0  0  0  0  0
    3.7500   -1.2990    0.0000 C   0  0  0  0  0  0  0  0  0  0  0  0
    3.0000   -2.5981    0.0000 O   0  0  0  0  0  0  0  0  0  0  0  0
    3.0000    0.0000    0.0000 N   0  0  0  0  0  0  0  0  0  0  0  0
    1.5000    0.0000    0.0000 C   0  0  0  0  0  0  0  0  0  0  0  0
    0.7500   -1.2990    0.0000 C   0  0  0  0  0  0  0  0  0  0  0  0
    1.5000   -2.5981    0.0000 O   0  0  0  0  0  0  0  0  0  0  0  0
   -0.7500   -1.2990    0.0000 O   0  0  0  0  0  0  0  0  0  0  0  0
   -1.5000    0.0000    0.0000 C   0  0  0  0  0  0  0  0  0  0  0  0
   -3.0000    0.0000    0.0000 C   0  0  0  0  0  0  0  0  0  0  0  0
   -3.7500   -1.2990    0.0000 O   0  0  0  0  0  0  0  0  0  0  0  0
   -0.7500    1.2990    0.0000 C   0  0  0  0  0  0  0  0  0  0  0  0
   -1.5000    2.5981    0.0000 O   0  0  0  0  0  0  0  0  0  0  0  0
    0.7500    1.2990    0.0000 C   0  0  0  0  0  0  0  0  0  0  0  0
    1.5000    2.5981    0.0000 O   0  0  0  0  0  0  0  0  0  0  0  0
  1  2  1  0
  2  3  2  0
  2  4  1  0
  5  4  1  1
  5  6  1  0
  6  7  1  6
  6  8  1  0
  8  9  1  0
  9 10  1  6
 10 11  1  0
  9 12  1  0
 12 13  1  1
 12 14  1  0
 14 15  1  6
 14  5  1  0
M  END
>  <Synonyms>  (148) 
N-ACETYLGLUCOSAMINE |N-Acetyl Glucosamine

>  <Research Codes>  (148) 
nan

>  <Phase>  (148) 
1

>  <Applicants>  (148) 
nan

>  <USAN Stem>  (148) 
nan

>  <USAN Year>  (148) 
nan

>  <USAN Stem Definition>  (148) 
nan

>  <USAN Stem Substem>  (148) 
nan

>  <First Approval>  (148) 
nan

>  <ATC Codes>  (148) 
nan

>  <Level 4 ATC Codes>  (148) 
nan

>  <Level 3 ATC Codes>  (148) 
nan

>  <Level 2 ATC Codes>  (148) 
nan

>  <Level 1 ATC Codes>  (148) 
nan

>  <Indication Class>  (148) 
nan

>  <Patent>  (148) 
nan

>  <Drug Type>  (148) 
7:Natural Product-derived

>  <Passes Rule of Five>  (148) 
True

>  <First In Class>  (148) 
False

>  <Chirality>  (148) 
Unknown

>  <Prodrug>  (148) 
False

>  <Oral>  (148) 
False

>  <Parenteral>  (148) 
False

>  <Topical>  (148) 
False

>  <Black Box>  (148) 
False

>  <Availability Type>  (148) 
Unknown

>  <Withdrawn Year>  (148) 
nan

>  <Withdrawn Reason>  (148) 
nan

>  <Withdrawn Country>  (148) 
nan

>  <Withdrawn Class>  (148) 
nan

>  <SMILES>  (148) 
CC(=O)N[C@H]1[C@H](O)O[C@H](CO)[C@@H](O)[C@@H]1O

>  <InChi Key>  (148) 
OVRNDRQMDRJTHS-FMDGEEDCSA-N

$$$$
CHEMBL2219421
     RDKit          2D

 22 23  0  0  0  0  0  0  0  0999 V2000
    3.7500    1.2990    0.0000 O   0  0  0  0  0  0  0  0  0  0  0  0
    3.0000    0.0000    0.0000 C   0  0  0  0  0  0  0  0  0  0  0  0
    3.7500   -1.2990    0.0000 O   0  0  0  0  0  0  0  0  0  0  0  0
    1.5000    0.0000    0.0000 C   0  0  0  0  0  0  0  0  0  0  0  0
    0.7500   -1.2990    0.0000 C   0  0  0  0  0  0  0  0  0  0  0  0
   -0.7500   -1.2990    0.0000 C   0  0  0  0  0  0  0  0  0  0  0  0
   -1.5000    0.0000    0.0000 C   0  0  0  0  0  0  0  0  0  0  0  0
   -3.0000    0.0000    0.0000 C   0  0  0  0  0  0  0  0  0  0  0  0
   -3.7500    1.2990    0.0000 C   0  0  0  0  0  0  0  0  0  0  0  0
   -5.2500    1.2990    0.0000 S   0  0  0  0  0  0  0  0  0  0  0  0
   -5.2500   -0.2010    0.0000 O   0  0  0  0  0  0  0  0  0  0  0  0
   -5.2500    2.7990    0.0000 O   0  0  0  0  0  0  0  0  0  0  0  0
   -6.7500    1.2990    0.0000 C   0  0  0  0  0  0  0  0  0  0  0  0
   -7.5000   -0.0000    0.0000 C   0  0  0  0  0  0  0  0  0  0  0  0
   -9.0000   -0.0000    0.0000 C   0  0  0  0  0  0  0  0  0  0  0  0
   -9.7500   -1.2990    0.0000 C   0  0  0  0  0  0  0  0  0  0  0  0
   -9.0000   -2.5981    0.0000 C   0  0  0  0  0  0  0  0  0  0  0  0
   -9.7500   -3.8971    0.0000 Cl  0  0  0  0  0  0  0  0  0  0  0  0
   -7.5000   -2.5981    0.0000 C   0  0  0  0  0  0  0  0  0  0  0  0
   -6.7500   -1.2990    0.0000 C   0  0  0  0  0  0  0  0  0  0  0  0
   -0.7500    1.2990    0.0000 C   0  0  0  0  0  0  0  0  0  0  0  0
    0.7500    1.2990    0.0000 C   0  0  0  0  0  0  0  0  0  0  0  0
  1  2  2  0
  2  3  1  0
  2  4  1  0
  4  5  2  0
  5  6  1  0
  6  7  2  0
  7  8  1  0
  8  9  2  0
  9 10  1  0
 10 11  2  0
 10 12  2  0
 10 13  1  0
 13 14  1  0
 14 15  2  0
 15 16  1  0
 16 17  2  0
 17 18  1  0
 17 19  1  0
 19 20  2  0
  7 21  1  0
 21 22  2  0
 22  4  1  0
 20 14  1  0
M  END
>  <Synonyms>  (149) 
Ex-RAD|ON 01210|ON 01210.Na|ON-01210|RECILISIB

>  <Research Codes>  (149) 
ON-01210|ON-01210.Na

>  <Phase>  (149) 
1

>  <Applicants>  (149) 
nan

>  <USAN Stem>  (149) 
'-lisib'

>  <USAN Year>  (149) 
2012.0

>  <USAN Stem Definition>  (149) 
phosphatidylinositol 3-kinase inhibitors

>  <USAN Stem Substem>  (149) 
'-lisib(-lisib)'

>  <First Approval>  (149) 
nan

>  <ATC Codes>  (149) 
nan

>  <Level 4 ATC Codes>  (149) 
nan

>  <Level 3 ATC Codes>  (149) 
nan

>  <Level 2 ATC Codes>  (149) 
nan

>  <Level 1 ATC Codes>  (149) 
nan

>  <Indication Class>  (149) 
nan

>  <Patent>  (149) 
nan

>  <Drug Type>  (149) 
1:Synthetic Small Molecule

>  <Passes Rule of Five>  (149) 
True

>  <First In Class>  (149) 
False

>  <Chirality>  (149) 
Achiral Molecule

>  <Prodrug>  (149) 
False

>  <Oral>  (149) 
False

>  <Parenteral>  (149) 
False

>  <Topical>  (149) 
False

>  <Black Box>  (149) 
False

>  <Availability Type>  (149) 
Unknown

>  <Withdrawn Year>  (149) 
nan

>  <Withdrawn Reason>  (149) 
nan

>  <Withdrawn Country>  (149) 
nan

>  <Withdrawn Class>  (149) 
nan

>  <SMILES>  (149) 
O=C(O)c1ccc(/C=C/S(=O)(=O)Cc2ccc(Cl)cc2)cc1

>  <InChi Key>  (149) 
KBEKQQJUNVQLDZ-MDZDMXLPSA-N

$$$$
CHEMBL2180602
     RDKit          2D

 31 34  0  0  0  0  0  0  0  0999 V2000
    7.8555   -8.9814    0.0000 C   0  0  0  0  0  0  0  0  0  0  0  0
    6.4289   -8.5179    0.0000 C   0  0  0  0  0  0  0  0  0  0  0  0
    6.1170   -7.0506    0.0000 N   0  0  0  0  0  0  0  0  0  0  0  0
    7.2317   -6.0469    0.0000 C   0  0  0  0  0  0  0  0  0  0  0  0
    8.6583   -6.5105    0.0000 C   0  0  0  0  0  0  0  0  0  0  0  0
    4.6904   -6.5871    0.0000 C   0  0  0  0  0  0  0  0  0  0  0  0
    4.3786   -5.1199    0.0000 C   0  0  0  0  0  0  0  0  0  0  0  0
    2.9520   -4.6564    0.0000 N   0  0  0  0  0  0  0  0  0  0  0  0
    2.6401   -3.1891    0.0000 C   0  0  0  0  0  0  0  0  0  0  0  0
    3.7548   -2.1855    0.0000 O   0  0  0  0  0  0  0  0  0  0  0  0
    1.2135   -2.7256    0.0000 C   0  0  0  0  0  0  0  0  0  0  0  0
    0.0000   -3.6073    0.0000 C   0  0  0  0  0  0  0  0  0  0  0  0
    0.0000   -5.1073    0.0000 C   0  0  0  0  0  0  0  0  0  0  0  0
   -1.2135   -2.7256    0.0000 N   0  0  0  0  0  0  0  0  0  0  0  0
   -0.7500   -1.2990    0.0000 C   0  0  0  0  0  0  0  0  0  0  0  0
    0.7500   -1.2990    0.0000 C   0  0  0  0  0  0  0  0  0  0  0  0
    1.5000    0.0000    0.0000 C   0  0  0  0  0  0  0  0  0  0  0  0
    0.7500    1.2990    0.0000 C   0  0  0  0  0  0  0  0  0  0  0  0
   -0.7500    1.2990    0.0000 C   0  0  0  0  0  0  0  0  0  0  0  0
   -1.5000    0.0000    0.0000 C   0  0  0  0  0  0  0  0  0  0  0  0
   -3.0000    0.0000    0.0000 C   0  0  0  0  0  0  0  0  0  0  0  0
   -3.8817   -1.2135    0.0000 C   0  0  0  0  0  0  0  0  0  0  0  0
   -3.4182   -2.6401    0.0000 O   0  0  0  0  0  0  0  0  0  0  0  0
   -5.3083   -0.7500    0.0000 N   0  0  0  0  0  0  0  0  0  0  0  0
   -5.3083    0.7500    0.0000 C   0  0  0  0  0  0  0  0  0  0  0  0
   -6.4230    1.7537    0.0000 C   0  0  0  0  0  0  0  0  0  0  0  0
   -6.1111    3.2209    0.0000 C   0  0  0  0  0  0  0  0  0  0  0  0
   -4.6845    3.6844    0.0000 C   0  0  0  0  0  0  0  0  0  0  0  0
   -4.3727    5.1517    0.0000 F   0  0  0  0  0  0  0  0  0  0  0  0
   -3.5698    2.6807    0.0000 C   0  0  0  0  0  0  0  0  0  0  0  0
   -3.8817    1.2135    0.0000 C   0  0  0  0  0  0  0  0  0  0  0  0
  1  2  1  0
  2  3  1  0
  3  4  1  0
  4  5  1  0
  3  6  1  0
  6  7  1  0
  7  8  1  0
  8  9  1  0
  9 10  2  0
  9 11  1  0
 11 12  1  0
 12 13  1  0
 12 14  1  0
 14 15  1  0
 15 16  2  0
 16 17  1  0
 17 18  2  0
 18 19  1  0
 19 20  2  0
 20 21  1  0
 21 22  2  0
 22 23  1  0
 22 24  1  0
 24 25  1  0
 25 26  2  0
 26 27  1  0
 27 28  2  0
 28 29  1  0
 28 30  1  0
 30 31  2  0
 16 11  1  0
 31 21  1  0
 20 15  1  0
 31 25  1  0
M  END
>  <Synonyms>  (150) 
SIM 010603|SIM-010603|TAFETINIB

>  <Research Codes>  (150) 
SIM 010603|SIM-010603

>  <Phase>  (150) 
1

>  <Applicants>  (150) 
nan

>  <USAN Stem>  (150) 
'-tinib'

>  <USAN Year>  (150) 
nan

>  <USAN Stem Definition>  (150) 
tyrosine kinase inhibitors

>  <USAN Stem Substem>  (150) 
'-tinib(-tinib)'

>  <First Approval>  (150) 
nan

>  <ATC Codes>  (150) 
nan

>  <Level 4 ATC Codes>  (150) 
nan

>  <Level 3 ATC Codes>  (150) 
nan

>  <Level 2 ATC Codes>  (150) 
nan

>  <Level 1 ATC Codes>  (150) 
nan

>  <Indication Class>  (150) 
nan

>  <Patent>  (150) 
nan

>  <Drug Type>  (150) 
1:Synthetic Small Molecule

>  <Passes Rule of Five>  (150) 
True

>  <First In Class>  (150) 
False

>  <Chirality>  (150) 
Achiral Molecule

>  <Prodrug>  (150) 
False

>  <Oral>  (150) 
False

>  <Parenteral>  (150) 
False

>  <Topical>  (150) 
False

>  <Black Box>  (150) 
False

>  <Availability Type>  (150) 
Unknown

>  <Withdrawn Year>  (150) 
nan

>  <Withdrawn Reason>  (150) 
nan

>  <Withdrawn Country>  (150) 
nan

>  <Withdrawn Class>  (150) 
nan

>  <SMILES>  (150) 
CCN(CC)CCNC(=O)c1c(C)[nH]c2c1CCC/C2=C1/C(=O)Nc2ccc(F)cc21

>  <InChi Key>  (150) 
XYHCOMQBGNFREM-UHFFFAOYSA-N

$$$$
CHEMBL2160007
     RDKit          2D

 29 32  0  0  0  0  0  0  0  0999 V2000
    3.8712    5.0750    0.0000 C   0  0  0  0  0  0  0  0  0  0  0  0
    2.4446    4.6115    0.0000 C   0  0  0  0  0  0  0  0  0  0  0  0
    2.1328    3.1443    0.0000 O   0  0  0  0  0  0  0  0  0  0  0  0
    0.7062    2.6807    0.0000 C   0  0  0  0  0  0  0  0  0  0  0  0
   -0.4086    3.6844    0.0000 N   0  0  0  0  0  0  0  0  0  0  0  0
   -1.8351    3.2209    0.0000 C   0  0  0  0  0  0  0  0  0  0  0  0
   -2.9499    4.2246    0.0000 N   0  0  0  0  0  0  0  0  0  0  0  0
   -2.1470    1.7537    0.0000 N   0  0  0  0  0  0  0  0  0  0  0  0
   -1.0323    0.7500    0.0000 C   0  0  0  0  0  0  0  0  0  0  0  0
    0.3943    1.2135    0.0000 C   0  0  0  0  0  0  0  0  0  0  0  0
    1.2760    0.0000    0.0000 N   0  0  0  0  0  0  0  0  0  0  0  0
    0.3943   -1.2135    0.0000 C   0  0  0  0  0  0  0  0  0  0  0  0
   -1.0323   -0.7500    0.0000 N   0  0  0  0  0  0  0  0  0  0  0  0
   -2.2458   -1.6317    0.0000 C   0  0  0  0  0  0  0  0  0  0  0  0
   -3.6724   -1.1682    0.0000 O   0  0  0  0  0  0  0  0  0  0  0  0
   -4.5541   -2.3817    0.0000 C   0  0  0  0  0  0  0  0  0  0  0  0
   -6.0459   -2.5385    0.0000 C   0  0  0  0  0  0  0  0  0  0  0  0
   -6.6560   -3.9088    0.0000 O   0  0  0  0  0  0  0  0  0  0  0  0
   -5.7743   -5.1223    0.0000 P   0  0  0  0  0  0  0  0  0  0  0  0
   -5.3608   -6.5642    0.0000 O   0  0  0  0  0  0  0  0  0  0  0  0
   -7.1225   -5.7799    0.0000 O   0  0  0  0  0  0  0  0  0  0  0  0
   -8.3660   -4.9411    0.0000 C   0  0  0  0  0  0  0  0  0  0  0  0
   -9.7142   -5.5986    0.0000 C   0  0  0  0  0  0  0  0  0  0  0  0
   -8.2614   -3.4447    0.0000 C   0  0  0  0  0  0  0  0  0  0  0  0
   -4.2825   -4.9655    0.0000 O   0  0  0  0  0  0  0  0  0  0  0  0
   -3.6724   -3.5952    0.0000 C   0  0  0  0  0  0  0  0  0  0  0  0
   -2.2458   -3.1317    0.0000 C   0  0  0  0  0  0  0  0  0  0  0  0
   -1.9339   -4.5989    0.0000 C   0  0  0  0  0  0  0  0  0  0  0  0
   -0.7540   -2.9749    0.0000 F   0  0  0  0  0  0  0  0  0  0  0  0
  1  2  1  0
  2  3  1  0
  3  4  1  0
  4  5  1  0
  5  6  1  0
  6  7  2  0
  6  8  1  0
  8  9  2  0
  9 10  1  0
 10 11  1  0
 11 12  2  0
 12 13  1  0
 14 13  1  1
 14 15  1  0
 15 16  1  0
 16 17  1  1
 17 18  1  0
 18 19  1  0
 19 20  2  0
 19 21  1  0
 21 22  1  0
 22 23  1  0
 22 24  1  0
 19 25  1  0
 26 25  1  6
 26 27  1  0
 27 28  1  1
 27 29  1  0
 10  4  2  0
 27 14  1  0
 13  9  1  0
 26 16  1  0
M  END
>  <Synonyms>  (151) 
PSI-352938

>  <Research Codes>  (151) 
nan

>  <Phase>  (151) 
1

>  <Applicants>  (151) 
nan

>  <USAN Stem>  (151) 
nan

>  <USAN Year>  (151) 
nan

>  <USAN Stem Definition>  (151) 
nan

>  <USAN Stem Substem>  (151) 
nan

>  <First Approval>  (151) 
nan

>  <ATC Codes>  (151) 
nan

>  <Level 4 ATC Codes>  (151) 
nan

>  <Level 3 ATC Codes>  (151) 
nan

>  <Level 2 ATC Codes>  (151) 
nan

>  <Level 1 ATC Codes>  (151) 
nan

>  <Indication Class>  (151) 
nan

>  <Patent>  (151) 
nan

>  <Drug Type>  (151) 
1:Synthetic Small Molecule

>  <Passes Rule of Five>  (151) 
False

>  <First In Class>  (151) 
False

>  <Chirality>  (151) 
Single Stereoisomer

>  <Prodrug>  (151) 
False

>  <Oral>  (151) 
False

>  <Parenteral>  (151) 
False

>  <Topical>  (151) 
False

>  <Black Box>  (151) 
False

>  <Availability Type>  (151) 
Unknown

>  <Withdrawn Year>  (151) 
nan

>  <Withdrawn Reason>  (151) 
nan

>  <Withdrawn Country>  (151) 
nan

>  <Withdrawn Class>  (151) 
nan

>  <SMILES>  (151) 
CCOc1nc(N)nc2c1ncn2[C@@H]1O[C@@H]2COP(=O)(OC(C)C)O[C@H]2[C@@]1(C)F

>  <InChi Key>  (151) 
PVRFQJIRERYGTQ-UYISCHNFSA-N

$$$$
CHEMBL4089083
     RDKit          2D

 30 34  0  0  0  0  0  0  0  0999 V2000
   -3.7500   -3.8971    0.0000 O   0  0  0  0  0  0  0  0  0  0  0  0
   -3.0000   -2.5981    0.0000 N   0  0  0  0  0  0  0  0  0  0  0  0
   -1.5000   -2.5981    0.0000 C   0  0  0  0  0  0  0  0  0  0  0  0
   -0.7500   -3.8971    0.0000 C   0  0  0  0  0  0  0  0  0  0  0  0
    0.7500   -3.8971    0.0000 C   0  0  0  0  0  0  0  0  0  0  0  0
    1.5000   -5.1962    0.0000 C   0  0  0  0  0  0  0  0  0  0  0  0
    0.7500   -6.4952    0.0000 C   0  0  0  0  0  0  0  0  0  0  0  0
    1.5000   -7.7942    0.0000 C   0  0  0  0  0  0  0  0  0  0  0  0
    1.0365   -9.2208    0.0000 S   0  0  0  0  0  0  0  0  0  0  0  0
    2.2500  -10.1025    0.0000 C   0  0  0  0  0  0  0  0  0  0  0  0
    3.4635   -9.2208    0.0000 C   0  0  0  0  0  0  0  0  0  0  0  0
    3.0000   -7.7942    0.0000 C   0  0  0  0  0  0  0  0  0  0  0  0
    3.7500   -6.4952    0.0000 C   0  0  0  0  0  0  0  0  0  0  0  0
    3.0000   -5.1962    0.0000 N   0  0  0  0  0  0  0  0  0  0  0  0
    1.5000   -2.5981    0.0000 O   0  0  0  0  0  0  0  0  0  0  0  0
    0.7500   -1.2990    0.0000 C   0  0  0  0  0  0  0  0  0  0  0  0
    1.5000    0.0000    0.0000 C   0  0  0  0  0  0  0  0  0  0  0  0
    0.7500    1.2990    0.0000 C   0  0  0  0  0  0  0  0  0  0  0  0
   -0.7500    1.2990    0.0000 C   0  0  0  0  0  0  0  0  0  0  0  0
   -1.5000    2.5981    0.0000 C   0  0  0  0  0  0  0  0  0  0  0  0
   -0.7500    3.8971    0.0000 C   0  0  0  0  0  0  0  0  0  0  0  0
   -1.5000    5.1962    0.0000 C   0  0  0  0  0  0  0  0  0  0  0  0
   -0.7500    6.4952    0.0000 N   0  0  0  0  0  0  0  0  0  0  0  0
    0.7500    6.4952    0.0000 C   0  0  0  0  0  0  0  0  0  0  0  0
    1.5000    7.7942    0.0000 C   0  0  0  0  0  0  0  0  0  0  0  0
    0.7500    9.0933    0.0000 O   0  0  0  0  0  0  0  0  0  0  0  0
   -0.7500    9.0933    0.0000 C   0  0  0  0  0  0  0  0  0  0  0  0
   -1.5000    7.7942    0.0000 C   0  0  0  0  0  0  0  0  0  0  0  0
   -1.5000    0.0000    0.0000 C   0  0  0  0  0  0  0  0  0  0  0  0
   -0.7500   -1.2990    0.0000 C   0  0  0  0  0  0  0  0  0  0  0  0
  1  2  1  0
  2  3  2  0
  3  4  1  0
  4  5  2  0
  5  6  1  0
  6  7  2  0
  7  8  1  0
  8  9  1  0
  9 10  1  0
 10 11  2  0
 11 12  1  0
 12 13  1  0
 13 14  2  0
  5 15  1  0
 15 16  1  0
 16 17  2  0
 17 18  1  0
 18 19  2  0
 19 20  1  0
 20 21  1  0
 21 22  1  0
 22 23  1  0
 23 24  1  0
 24 25  1  0
 25 26  1  0
 26 27  1  0
 27 28  1  0
 19 29  1  0
 29 30  2  0
 30  3  1  0
 14  6  1  0
 30 16  1  0
 12  8  2  0
 28 23  1  0
M  END
>  <Synonyms>  (152) 
DT-1687|DT1687|FOLIGLURAX|PXT-002331|PXT002331

>  <Research Codes>  (152) 
DT-1687|DT1687|PXT-002331|PXT002331

>  <Phase>  (152) 
1

>  <Applicants>  (152) 
nan

>  <USAN Stem>  (152) 
nan

>  <USAN Year>  (152) 
nan

>  <USAN Stem Definition>  (152) 
nan

>  <USAN Stem Substem>  (152) 
nan

>  <First Approval>  (152) 
nan

>  <ATC Codes>  (152) 
nan

>  <Level 4 ATC Codes>  (152) 
nan

>  <Level 3 ATC Codes>  (152) 
nan

>  <Level 2 ATC Codes>  (152) 
nan

>  <Level 1 ATC Codes>  (152) 
nan

>  <Indication Class>  (152) 
nan

>  <Patent>  (152) 
nan

>  <Drug Type>  (152) 
1:Synthetic Small Molecule

>  <Passes Rule of Five>  (152) 
True

>  <First In Class>  (152) 
False

>  <Chirality>  (152) 
Achiral Molecule

>  <Prodrug>  (152) 
False

>  <Oral>  (152) 
False

>  <Parenteral>  (152) 
False

>  <Topical>  (152) 
False

>  <Black Box>  (152) 
False

>  <Availability Type>  (152) 
Unknown

>  <Withdrawn Year>  (152) 
nan

>  <Withdrawn Reason>  (152) 
nan

>  <Withdrawn Country>  (152) 
nan

>  <Withdrawn Class>  (152) 
nan

>  <SMILES>  (152) 
O/N=c1\cc(-c2cc3sccc3cn2)oc2ccc(CCCN3CCOCC3)cc12

>  <InChi Key>  (152) 
ZTEDNASHAWNBKQ-NCELDCMTSA-N

$$$$
CHEMBL1442934
     RDKit          2D

 21 20  0  0  0  0  0  0  0  0999 V2000
    0.0000    0.0000    0.0000 C   0  0  0  0  0  0  0  0  0  0  0  0
    1.2990    0.7500    0.0000 C   0  0  0  0  0  0  0  0  0  0  0  0
    2.5981   -0.0000    0.0000 C   0  0  0  0  0  0  0  0  0  0  0  0
    3.8971    0.7500    0.0000 C   0  0  0  0  0  0  0  0  0  0  0  0
    5.1962   -0.0000    0.0000 C   0  0  0  0  0  0  0  0  0  0  0  0
    6.4952    0.7500    0.0000 C   0  0  0  0  0  0  0  0  0  0  0  0
    7.7942   -0.0000    0.0000 C   0  0  0  0  0  0  0  0  0  0  0  0
    9.0933    0.7500    0.0000 C   0  0  0  0  0  0  0  0  0  0  0  0
   10.3923   -0.0000    0.0000 C   0  0  0  0  0  0  0  0  0  0  0  0
   11.6913    0.7500    0.0000 C   0  0  0  0  0  0  0  0  0  0  0  0
   12.9904   -0.0000    0.0000 C   0  0  0  0  0  0  0  0  0  0  0  0
   14.2894    0.7500    0.0000 C   0  0  0  0  0  0  0  0  0  0  0  0
   15.5885   -0.0000    0.0000 C   0  0  0  0  0  0  0  0  0  0  0  0
   16.8875    0.7500    0.0000 C   0  0  0  0  0  0  0  0  0  0  0  0
   18.1865   -0.0000    0.0000 C   0  0  0  0  0  0  0  0  0  0  0  0
   19.4856    0.7500    0.0000 C   0  0  0  0  0  0  0  0  0  0  0  0
   19.4856    2.2500    0.0000 O   0  0  0  0  0  0  0  0  0  0  0  0
   20.7846   -0.0000    0.0000 C   0  0  0  0  0  0  0  0  0  0  0  0
   20.7846   -1.5000    0.0000 N   0  0  0  0  0  0  0  0  0  0  0  0
   22.0836    0.7500    0.0000 C   0  0  0  0  0  0  0  0  0  0  0  0
   23.3827   -0.0000    0.0000 O   0  0  0  0  0  0  0  0  0  0  0  0
  1  2  1  0
  2  3  1  0
  3  4  1  0
  4  5  1  0
  5  6  1  0
  6  7  1  0
  7  8  1  0
  8  9  1  0
  9 10  1  0
 10 11  1  0
 11 12  1  0
 12 13  1  0
 13 14  1  0
 14 15  1  0
 15 16  1  0
 16 17  1  6
 16 18  1  0
 18 19  1  6
 18 20  1  0
 20 21  1  0
M  END
>  <Synonyms>  (153) 
SAFINGOL|SAFINGOL HYDROCHLORIDE|SPC-100270

>  <Research Codes>  (153) 
SPC-100270

>  <Phase>  (153) 
1

>  <Applicants>  (153) 
nan

>  <USAN Stem>  (153) 
'-fingol'

>  <USAN Year>  (153) 
1994.0

>  <USAN Stem Definition>  (153) 
sphingosine derivatives

>  <USAN Stem Substem>  (153) 
'-fingol(-fingol)'

>  <First Approval>  (153) 
nan

>  <ATC Codes>  (153) 
nan

>  <Level 4 ATC Codes>  (153) 
nan

>  <Level 3 ATC Codes>  (153) 
nan

>  <Level 2 ATC Codes>  (153) 
nan

>  <Level 1 ATC Codes>  (153) 
nan

>  <Indication Class>  (153) 
Antineoplastic (adjunct); Antipsoriatic,Antipsoriatic; Antineoplastic (adjunct)

>  <Patent>  (153) 
nan

>  <Drug Type>  (153) 
1:Synthetic Small Molecule

>  <Passes Rule of Five>  (153) 
True

>  <First In Class>  (153) 
False

>  <Chirality>  (153) 
Single Stereoisomer

>  <Prodrug>  (153) 
False

>  <Oral>  (153) 
False

>  <Parenteral>  (153) 
False

>  <Topical>  (153) 
False

>  <Black Box>  (153) 
False

>  <Availability Type>  (153) 
Unknown

>  <Withdrawn Year>  (153) 
nan

>  <Withdrawn Reason>  (153) 
nan

>  <Withdrawn Country>  (153) 
nan

>  <Withdrawn Class>  (153) 
nan

>  <SMILES>  (153) 
CCCCCCCCCCCCCCC[C@H](O)[C@@H](N)CO

>  <InChi Key>  (153) 
OTKJDMGTUTTYMP-ROUUACIJSA-N

$$$$
CHEMBL2181367
     RDKit          2D

 43 47  0  0  0  0  0  0  0  0999 V2000
   -7.6471   -3.1471    0.0000 C   0  0  0  0  0  0  0  0  0  0  0  0
   -6.3481   -3.8971    0.0000 C   0  0  0  0  0  0  0  0  0  0  0  0
   -5.0490   -3.1471    0.0000 N   0  0  0  0  0  0  0  0  0  0  0  0
   -3.7500   -3.8971    0.0000 P   0  0  0  0  0  0  0  0  0  0  0  0
   -2.4510   -4.6471    0.0000 O   0  0  0  0  0  0  0  0  0  0  0  0
   -4.5000   -5.1962    0.0000 O   0  0  0  0  0  0  0  0  0  0  0  0
   -3.7500   -6.4952    0.0000 C   0  0  0  0  0  0  0  0  0  0  0  0
   -4.5000   -7.7942    0.0000 C   0  0  0  0  0  0  0  0  0  0  0  0
   -3.8899   -9.1645    0.0000 O   0  0  0  0  0  0  0  0  0  0  0  0
   -5.0046  -10.1682    0.0000 C   0  0  0  0  0  0  0  0  0  0  0  0
   -4.8478  -11.6600    0.0000 N   0  0  0  0  0  0  0  0  0  0  0  0
   -6.0613  -12.5417    0.0000 C   0  0  0  0  0  0  0  0  0  0  0  0
   -5.9046  -14.0335    0.0000 C   0  0  0  0  0  0  0  0  0  0  0  0
   -7.1181  -14.9152    0.0000 F   0  0  0  0  0  0  0  0  0  0  0  0
   -4.5342  -14.6436    0.0000 C   0  0  0  0  0  0  0  0  0  0  0  0
   -4.3774  -16.1354    0.0000 O   0  0  0  0  0  0  0  0  0  0  0  0
   -3.3207  -13.7619    0.0000 N   0  0  0  0  0  0  0  0  0  0  0  0
   -3.4775  -12.2701    0.0000 C   0  0  0  0  0  0  0  0  0  0  0  0
   -2.2640  -11.3885    0.0000 O   0  0  0  0  0  0  0  0  0  0  0  0
   -6.3037   -9.4182    0.0000 C   0  0  0  0  0  0  0  0  0  0  0  0
   -5.9918   -7.9510    0.0000 C   0  0  0  0  0  0  0  0  0  0  0  0
   -6.9955   -6.8363    0.0000 O   0  0  0  0  0  0  0  0  0  0  0  0
   -3.0000   -2.5981    0.0000 O   0  0  0  0  0  0  0  0  0  0  0  0
   -1.5000   -2.5981    0.0000 C   0  0  0  0  0  0  0  0  0  0  0  0
   -0.7500   -3.8971    0.0000 C   0  0  0  0  0  0  0  0  0  0  0  0
    0.7500   -3.8971    0.0000 C   0  0  0  0  0  0  0  0  0  0  0  0
    1.5000   -2.5981    0.0000 C   0  0  0  0  0  0  0  0  0  0  0  0
    0.7500   -1.2990    0.0000 C   0  0  0  0  0  0  0  0  0  0  0  0
    1.5000    0.0000    0.0000 C   0  0  0  0  0  0  0  0  0  0  0  0
    0.7500    1.2990    0.0000 C   0  0  0  0  0  0  0  0  0  0  0  0
   -0.7500    1.2990    0.0000 C   0  0  0  0  0  0  0  0  0  0  0  0
   -1.5000    0.0000    0.0000 C   0  0  0  0  0  0  0  0  0  0  0  0
   -0.7500   -1.2990    0.0000 C   0  0  0  0  0  0  0  0  0  0  0  0
   -6.3481   -5.3971    0.0000 C   0  0  0  0  0  0  0  0  0  0  0  0
   -5.0490   -6.1471    0.0000 O   0  0  0  0  0  0  0  0  0  0  0  0
   -7.6471   -6.1471    0.0000 O   0  0  0  0  0  0  0  0  0  0  0  0
   -7.6471   -7.6471    0.0000 C   0  0  0  0  0  0  0  0  0  0  0  0
   -8.9462   -8.3971    0.0000 C   0  0  0  0  0  0  0  0  0  0  0  0
  -10.2452   -7.6471    0.0000 C   0  0  0  0  0  0  0  0  0  0  0  0
  -11.5442   -8.3971    0.0000 C   0  0  0  0  0  0  0  0  0  0  0  0
  -11.5442   -9.8971    0.0000 C   0  0  0  0  0  0  0  0  0  0  0  0
  -10.2452  -10.6471    0.0000 C   0  0  0  0  0  0  0  0  0  0  0  0
   -8.9462   -9.8971    0.0000 C   0  0  0  0  0  0  0  0  0  0  0  0
  1  2  1  0
  2  3  1  0
  3  4  1  0
  4  5  2  0
  4  6  1  0
  6  7  1  0
  8  7  1  1
  8  9  1  0
  9 10  1  0
 10 11  1  1
 11 12  1  0
 12 13  2  0
 13 14  1  0
 13 15  1  0
 15 16  2  0
 15 17  1  0
 17 18  1  0
 18 19  2  0
 10 20  1  0
 20 21  1  0
 21 22  1  6
  4 23  1  0
 23 24  1  0
 24 25  2  0
 25 26  1  0
 26 27  2  0
 27 28  1  0
 28 29  2  0
 29 30  1  0
 30 31  2  0
 31 32  1  0
 32 33  2  0
  2 34  1  0
 34 35  2  0
 34 36  1  0
 36 37  1  0
 37 38  1  0
 38 39  2  0
 39 40  1  0
 40 41  2  0
 41 42  1  0
 42 43  2  0
 21  8  1  0
 33 24  1  0
 43 38  1  0
 18 11  1  0
 33 28  1  0
M  END
>  <Synonyms>  (154) 
FOSIFLOXURIDINE NAFALBENAMIDE|NUC-3373

>  <Research Codes>  (154) 
NUC-3373

>  <Phase>  (154) 
1

>  <Applicants>  (154) 
nan

>  <USAN Stem>  (154) 
'-uridine; fos-'

>  <USAN Year>  (154) 
nan

>  <USAN Stem Definition>  (154) 
antivirals, antineoplastics (uridine derivatives); phosphoro-derivatives

>  <USAN Stem Substem>  (154) 
'-uridine(-uridine); fos-(fos-)'

>  <First Approval>  (154) 
nan

>  <ATC Codes>  (154) 
nan

>  <Level 4 ATC Codes>  (154) 
nan

>  <Level 3 ATC Codes>  (154) 
nan

>  <Level 2 ATC Codes>  (154) 
nan

>  <Level 1 ATC Codes>  (154) 
nan

>  <Indication Class>  (154) 
nan

>  <Patent>  (154) 
nan

>  <Drug Type>  (154) 
7:Natural Product-derived

>  <Passes Rule of Five>  (154) 
False

>  <First In Class>  (154) 
False

>  <Chirality>  (154) 
Racemic Mixture

>  <Prodrug>  (154) 
False

>  <Oral>  (154) 
False

>  <Parenteral>  (154) 
False

>  <Topical>  (154) 
False

>  <Black Box>  (154) 
False

>  <Availability Type>  (154) 
Unknown

>  <Withdrawn Year>  (154) 
nan

>  <Withdrawn Reason>  (154) 
nan

>  <Withdrawn Country>  (154) 
nan

>  <Withdrawn Class>  (154) 
nan

>  <SMILES>  (154) 
C[C@H](NP(=O)(OC[C@H]1O[C@@H](n2cc(F)c(=O)[nH]c2=O)C[C@@H]1O)Oc1cccc2ccccc12)C(=O)OCc1ccccc1

>  <InChi Key>  (154) 
BIOWRMNRHMERIO-HILZSASKSA-N

$$$$
CHEMBL4078100
     RDKit          2D

 35 39  0  0  0  0  0  0  0  0999 V2000
   -2.9520   -4.6564    0.0000 C   0  0  0  0  0  0  0  0  0  0  0  0
   -2.6401   -3.1891    0.0000 O   0  0  0  0  0  0  0  0  0  0  0  0
   -1.2135   -2.7256    0.0000 C   0  0  0  0  0  0  0  0  0  0  0  0
   -0.0000   -3.6073    0.0000 N   0  0  0  0  0  0  0  0  0  0  0  0
    1.2135   -2.7256    0.0000 N   0  0  0  0  0  0  0  0  0  0  0  0
    0.7500   -1.2990    0.0000 C   0  0  0  0  0  0  0  0  0  0  0  0
    1.5000    0.0000    0.0000 C   0  0  0  0  0  0  0  0  0  0  0  0
    0.7500    1.2990    0.0000 C   0  0  0  0  0  0  0  0  0  0  0  0
   -0.7500    1.2990    0.0000 C   0  0  0  0  0  0  0  0  0  0  0  0
   -1.5000    2.5981    0.0000 N   0  0  0  0  0  0  0  0  0  0  0  0
   -0.7500    3.8971    0.0000 C   0  0  0  0  0  0  0  0  0  0  0  0
   -1.5000    5.1962    0.0000 C   0  0  0  0  0  0  0  0  0  0  0  0
   -3.0000    5.1962    0.0000 C   0  0  0  0  0  0  0  0  0  0  0  0
   -3.7500    6.4952    0.0000 C   0  0  0  0  0  0  0  0  0  0  0  0
   -3.0000    7.7942    0.0000 C   0  0  0  0  0  0  0  0  0  0  0  0
   -3.7500    9.0933    0.0000 C   0  0  0  0  0  0  0  0  0  0  0  0
   -5.2500    9.0933    0.0000 C   0  0  0  0  0  0  0  0  0  0  0  0
   -6.0000   10.3923    0.0000 O   0  0  0  0  0  0  0  0  0  0  0  0
   -5.2500   11.6913    0.0000 C   0  0  0  0  0  0  0  0  0  0  0  0
   -6.0000   12.9904    0.0000 C   0  0  0  0  0  0  0  0  0  0  0  0
   -5.2500   14.2894    0.0000 N   0  0  0  0  0  0  0  0  0  0  0  0
   -3.7500   14.2894    0.0000 C   0  0  0  0  0  0  0  0  0  0  0  0
   -3.0000   15.5885    0.0000 C   0  0  0  0  0  0  0  0  0  0  0  0
   -3.7500   16.8875    0.0000 N   0  0  0  0  0  0  0  0  0  0  0  0
   -3.0000   18.1865    0.0000 C   0  0  0  0  0  0  0  0  0  0  0  0
   -5.2500   16.8875    0.0000 C   0  0  0  0  0  0  0  0  0  0  0  0
   -6.0000   18.1865    0.0000 O   0  0  0  0  0  0  0  0  0  0  0  0
   -6.0000   15.5885    0.0000 C   0  0  0  0  0  0  0  0  0  0  0  0
   -7.5000   15.5885    0.0000 C   0  0  0  0  0  0  0  0  0  0  0  0
   -6.0000    7.7942    0.0000 C   0  0  0  0  0  0  0  0  0  0  0  0
   -5.2500    6.4952    0.0000 C   0  0  0  0  0  0  0  0  0  0  0  0
   -3.7500    3.8971    0.0000 C   0  0  0  0  0  0  0  0  0  0  0  0
   -3.0000    2.5981    0.0000 C   0  0  0  0  0  0  0  0  0  0  0  0
   -1.5000    0.0000    0.0000 N   0  0  0  0  0  0  0  0  0  0  0  0
   -0.7500   -1.2990    0.0000 N   0  0  0  0  0  0  0  0  0  0  0  0
  1  2  1  0
  2  3  1  0
  3  4  2  0
  4  5  1  0
  5  6  2  0
  6  7  1  0
  7  8  2  0
  8  9  1  0
  9 10  1  0
 10 11  1  0
 11 12  1  0
 12 13  1  0
 13 14  1  0
 14 15  2  0
 15 16  1  0
 16 17  2  0
 17 18  1  0
 18 19  1  0
 19 20  1  0
 20 21  1  0
 21 22  1  0
 22 23  1  0
 23 24  1  0
 24 25  1  0
 24 26  1  0
 26 27  2  0
 26 28  1  0
 28 29  1  0
 17 30  1  0
 30 31  2  0
 13 32  1  0
 32 33  1  0
  9 34  2  0
 34 35  1  0
 35  3  1  0
 35  6  1  0
 33 10  1  0
 31 14  1  0
 28 21  1  0
M  END
>  <Synonyms>  (155) 
AZD 5153|AZD-5153|AZD5153

>  <Research Codes>  (155) 
AZD-5153|AZD5153

>  <Phase>  (155) 
1

>  <Applicants>  (155) 
nan

>  <USAN Stem>  (155) 
nan

>  <USAN Year>  (155) 
nan

>  <USAN Stem Definition>  (155) 
nan

>  <USAN Stem Substem>  (155) 
nan

>  <First Approval>  (155) 
nan

>  <ATC Codes>  (155) 
nan

>  <Level 4 ATC Codes>  (155) 
nan

>  <Level 3 ATC Codes>  (155) 
nan

>  <Level 2 ATC Codes>  (155) 
nan

>  <Level 1 ATC Codes>  (155) 
nan

>  <Indication Class>  (155) 
nan

>  <Patent>  (155) 
nan

>  <Drug Type>  (155) 
1:Synthetic Small Molecule

>  <Passes Rule of Five>  (155) 
True

>  <First In Class>  (155) 
False

>  <Chirality>  (155) 
Single Stereoisomer

>  <Prodrug>  (155) 
False

>  <Oral>  (155) 
False

>  <Parenteral>  (155) 
False

>  <Topical>  (155) 
False

>  <Black Box>  (155) 
False

>  <Availability Type>  (155) 
Unknown

>  <Withdrawn Year>  (155) 
nan

>  <Withdrawn Reason>  (155) 
nan

>  <Withdrawn Country>  (155) 
nan

>  <Withdrawn Class>  (155) 
nan

>  <SMILES>  (155) 
COc1nnc2ccc(N3CCC(c4ccc(OCCN5CCN(C)C(=O)[C@H]5C)cc4)CC3)nn12

>  <InChi Key>  (155) 
RSMYFSPOTCDHHJ-UHFFFAOYSA-N

$$$$
CHEMBL1208829
     RDKit          2D

 41 44  0  0  0  0  0  0  0  0999 V2000
   -9.7500   -3.8971    0.0000 C   0  0  0  0  0  0  0  0  0  0  0  0
   -8.2500   -3.8971    0.0000 O   0  0  0  0  0  0  0  0  0  0  0  0
   -7.5000   -5.1962    0.0000 C   0  0  0  0  0  0  0  0  0  0  0  0
   -6.0000   -5.1962    0.0000 C   0  0  0  0  0  0  0  0  0  0  0  0
   -5.2500   -3.8971    0.0000 N   0  0  0  0  0  0  0  0  0  0  0  0
   -3.7500   -3.8971    0.0000 C   0  0  0  0  0  0  0  0  0  0  0  0
   -3.0000   -5.1962    0.0000 O   0  0  0  0  0  0  0  0  0  0  0  0
   -3.0000   -2.5981    0.0000 C   0  0  0  0  0  0  0  0  0  0  0  0
   -3.7500   -1.2990    0.0000 O   0  0  0  0  0  0  0  0  0  0  0  0
   -1.5000   -2.5981    0.0000 C   0  0  0  0  0  0  0  0  0  0  0  0
   -0.7500   -3.8971    0.0000 C   0  0  0  0  0  0  0  0  0  0  0  0
    0.7500   -3.8971    0.0000 C   0  0  0  0  0  0  0  0  0  0  0  0
    1.5000   -2.5981    0.0000 C   0  0  0  0  0  0  0  0  0  0  0  0
    3.0000   -2.5981    0.0000 O   0  0  0  0  0  0  0  0  0  0  0  0
    3.7500   -3.8971    0.0000 C   0  0  0  0  0  0  0  0  0  0  0  0
    5.2500   -3.8971    0.0000 C   0  0  0  0  0  0  0  0  0  0  0  0
    6.0000   -5.1962    0.0000 N   0  0  0  0  0  0  0  0  0  0  0  0
    5.2500   -6.4952    0.0000 C   0  0  0  0  0  0  0  0  0  0  0  0
    6.0000   -7.7942    0.0000 C   0  0  0  0  0  0  0  0  0  0  0  0
    7.5000   -7.7942    0.0000 O   0  0  0  0  0  0  0  0  0  0  0  0
    8.2500   -6.4952    0.0000 C   0  0  0  0  0  0  0  0  0  0  0  0
    7.5000   -5.1962    0.0000 C   0  0  0  0  0  0  0  0  0  0  0  0
    0.7500   -1.2990    0.0000 C   0  0  0  0  0  0  0  0  0  0  0  0
    1.5000    0.0000    0.0000 C   0  0  0  0  0  0  0  0  0  0  0  0
    0.7500    1.2990    0.0000 C   0  0  0  0  0  0  0  0  0  0  0  0
   -0.7500    1.2990    0.0000 C   0  0  0  0  0  0  0  0  0  0  0  0
   -1.5000    0.0000    0.0000 C   0  0  0  0  0  0  0  0  0  0  0  0
   -0.7500   -1.2990    0.0000 C   0  0  0  0  0  0  0  0  0  0  0  0
   -5.2500   -6.4952    0.0000 C   0  0  0  0  0  0  0  0  0  0  0  0
   -6.0000   -7.7942    0.0000 C   0  0  0  0  0  0  0  0  0  0  0  0
   -5.2500   -9.0933    0.0000 C   0  0  0  0  0  0  0  0  0  0  0  0
   -6.5490   -9.8433    0.0000 C   0  0  0  0  0  0  0  0  0  0  0  0
   -3.9510   -8.3433    0.0000 C   0  0  0  0  0  0  0  0  0  0  0  0
   -4.5000  -10.3923    0.0000 C   0  0  0  0  0  0  0  0  0  0  0  0
   -7.5000   -7.7942    0.0000 C   0  0  0  0  0  0  0  0  0  0  0  0
   -8.2500   -6.4952    0.0000 C   0  0  0  0  0  0  0  0  0  0  0  0
   -9.7500   -6.4952    0.0000 N   0  0  0  0  0  0  0  0  0  0  0  0
  -10.5000   -7.7942    0.0000 S   0  0  0  0  0  0  0  0  0  0  0  0
  -11.2500   -9.0933    0.0000 C   0  0  0  0  0  0  0  0  0  0  0  0
   -9.2010   -8.5442    0.0000 O   0  0  0  0  0  0  0  0  0  0  0  0
  -11.7990   -7.0442    0.0000 O   0  0  0  0  0  0  0  0  0  0  0  0
  1  2  1  0
  2  3  1  0
  3  4  2  0
  4  5  1  0
  5  6  1  0
  6  7  2  0
  6  8  1  0
  8  9  2  0
  8 10  1  0
 10 11  2  0
 11 12  1  0
 12 13  2  0
 13 14  1  0
 14 15  1  0
 15 16  1  0
 16 17  1  0
 17 18  1  0
 18 19  1  0
 19 20  1  0
 20 21  1  0
 21 22  1  0
 13 23  1  0
 23 24  2  0
 24 25  1  0
 25 26  2  0
 26 27  1  0
 27 28  2  0
  4 29  1  0
 29 30  2  0
 30 31  1  0
 31 32  1  0
 31 33  1  0
 31 34  1  0
 30 35  1  0
 35 36  2  0
 36 37  1  0
 37 38  1  0
 38 39  1  0
 38 40  2  0
 38 41  2  0
 36  3  1  0
 28 10  1  0
 22 17  1  0
 28 23  1  0
M  END
>  <Synonyms>  (156) 
nan

>  <Research Codes>  (156) 
nan

>  <Phase>  (156) 
1

>  <Applicants>  (156) 
nan

>  <USAN Stem>  (156) 
nan

>  <USAN Year>  (156) 
nan

>  <USAN Stem Definition>  (156) 
nan

>  <USAN Stem Substem>  (156) 
nan

>  <First Approval>  (156) 
nan

>  <ATC Codes>  (156) 
nan

>  <Level 4 ATC Codes>  (156) 
nan

>  <Level 3 ATC Codes>  (156) 
nan

>  <Level 2 ATC Codes>  (156) 
nan

>  <Level 1 ATC Codes>  (156) 
nan

>  <Indication Class>  (156) 
nan

>  <Patent>  (156) 
nan

>  <Drug Type>  (156) 
1:Synthetic Small Molecule

>  <Passes Rule of Five>  (156) 
False

>  <First In Class>  (156) 
False

>  <Chirality>  (156) 
Achiral Molecule

>  <Prodrug>  (156) 
False

>  <Oral>  (156) 
False

>  <Parenteral>  (156) 
False

>  <Topical>  (156) 
False

>  <Black Box>  (156) 
False

>  <Availability Type>  (156) 
Unknown

>  <Withdrawn Year>  (156) 
nan

>  <Withdrawn Reason>  (156) 
nan

>  <Withdrawn Country>  (156) 
nan

>  <Withdrawn Class>  (156) 
nan

>  <SMILES>  (156) 
COc1c(NC(=O)C(=O)c2ccc(OCCN3CCOCC3)c3ccccc23)cc(C(C)(C)C)cc1NS(C)(=O)=O

>  <InChi Key>  (156) 
UUROSJLZNDSXRF-UHFFFAOYSA-N

$$$$
CHEMBL292439
     RDKit          2D

  9  8  0  0  0  0  0  0  0  0999 V2000
    0.0000    0.0000    0.0000 C   0  0  0  0  0  0  0  0  0  0  0  0
    1.2990    0.7500    0.0000 C   0  0  0  0  0  0  0  0  0  0  0  0
    2.5981   -0.0000    0.0000 C   0  0  0  0  0  0  0  0  0  0  0  0
    3.8971    0.7500    0.0000 C   0  0  0  0  0  0  0  0  0  0  0  0
    5.1962   -0.0000    0.0000 C   0  0  0  0  0  0  0  0  0  0  0  0
    5.1962   -1.5000    0.0000 N   0  0  0  0  0  0  0  0  0  0  0  0
    6.4952    0.7500    0.0000 C   0  0  0  0  0  0  0  0  0  0  0  0
    7.7942   -0.0000    0.0000 O   0  0  0  0  0  0  0  0  0  0  0  0
    6.4952    2.2500    0.0000 O   0  0  0  0  0  0  0  0  0  0  0  0
  1  2  1  0
  2  3  1  0
  3  4  1  0
  4  5  1  0
  5  6  1  0
  5  7  1  0
  7  8  2  0
  7  9  1  0
M  END
>  <Synonyms>  (157) 
2-Amino-Hexanoic Acid|NORLEUCINE|NSC-10378

>  <Research Codes>  (157) 
NSC-10378

>  <Phase>  (157) 
1

>  <Applicants>  (157) 
nan

>  <USAN Stem>  (157) 
nan

>  <USAN Year>  (157) 
nan

>  <USAN Stem Definition>  (157) 
nan

>  <USAN Stem Substem>  (157) 
nan

>  <First Approval>  (157) 
nan

>  <ATC Codes>  (157) 
nan

>  <Level 4 ATC Codes>  (157) 
nan

>  <Level 3 ATC Codes>  (157) 
nan

>  <Level 2 ATC Codes>  (157) 
nan

>  <Level 1 ATC Codes>  (157) 
nan

>  <Indication Class>  (157) 
nan

>  <Patent>  (157) 
nan

>  <Drug Type>  (157) 
1:Synthetic Small Molecule

>  <Passes Rule of Five>  (157) 
True

>  <First In Class>  (157) 
False

>  <Chirality>  (157) 
Single Stereoisomer

>  <Prodrug>  (157) 
False

>  <Oral>  (157) 
False

>  <Parenteral>  (157) 
False

>  <Topical>  (157) 
False

>  <Black Box>  (157) 
False

>  <Availability Type>  (157) 
Unknown

>  <Withdrawn Year>  (157) 
nan

>  <Withdrawn Reason>  (157) 
nan

>  <Withdrawn Country>  (157) 
nan

>  <Withdrawn Class>  (157) 
nan

>  <SMILES>  (157) 
CCCC[C@H](N)C(=O)O

>  <InChi Key>  (157) 
LRQKBLKVPFOOQJ-UHFFFAOYSA-N

$$$$
CHEMBL23832
     RDKit          2D

 16 17  0  0  0  0  0  0  0  0999 V2000
    3.7500   -1.2990    0.0000 O   0  0  0  0  0  0  0  0  0  0  0  0
    3.0000    0.0000    0.0000 C   0  0  0  0  0  0  0  0  0  0  0  0
    3.7500    1.2990    0.0000 O   0  0  0  0  0  0  0  0  0  0  0  0
    1.5000    0.0000    0.0000 C   0  0  0  0  0  0  0  0  0  0  0  0
    0.7500   -1.2990    0.0000 C   0  0  0  0  0  0  0  0  0  0  0  0
   -0.7500   -1.2990    0.0000 C   0  0  0  0  0  0  0  0  0  0  0  0
   -1.5000    0.0000    0.0000 C   0  0  0  0  0  0  0  0  0  0  0  0
   -0.7500    1.2990    0.0000 C   0  0  0  0  0  0  0  0  0  0  0  0
    0.7500    1.2990    0.0000 C   0  0  0  0  0  0  0  0  0  0  0  0
    1.5000    2.5981    0.0000 N   0  0  0  0  0  0  0  0  0  0  0  0
    0.7500    3.8971    0.0000 C   0  0  0  0  0  0  0  0  0  0  0  0
    1.5000    5.1962    0.0000 C   0  0  0  0  0  0  0  0  0  0  0  0
    0.7500    6.4952    0.0000 C   0  0  0  0  0  0  0  0  0  0  0  0
   -0.7500    6.4952    0.0000 C   0  0  0  0  0  0  0  0  0  0  0  0
   -1.5000    5.1962    0.0000 C   0  0  0  0  0  0  0  0  0  0  0  0
   -0.7500    3.8971    0.0000 C   0  0  0  0  0  0  0  0  0  0  0  0
  1  2  2  0
  2  3  1  0
  2  4  1  0
  4  5  2  0
  5  6  1  0
  6  7  2  0
  7  8  1  0
  8  9  2  0
  9 10  1  0
 10 11  1  0
 11 12  2  0
 12 13  1  0
 13 14  2  0
 14 15  1  0
 15 16  2  0
  9  4  1  0
 16 11  1  0
M  END
>  <Synonyms>  (158) 
2-(Phenylamino)Benzoic Acid|2-Phenylamino-Benzoic Acid|FENAMIC ACID |N-Phenylanthranilic Acid

>  <Research Codes>  (158) 
nan

>  <Phase>  (158) 
1

>  <Applicants>  (158) 
nan

>  <USAN Stem>  (158) 
nan

>  <USAN Year>  (158) 
nan

>  <USAN Stem Definition>  (158) 
nan

>  <USAN Stem Substem>  (158) 
nan

>  <First Approval>  (158) 
nan

>  <ATC Codes>  (158) 
nan

>  <Level 4 ATC Codes>  (158) 
nan

>  <Level 3 ATC Codes>  (158) 
nan

>  <Level 2 ATC Codes>  (158) 
nan

>  <Level 1 ATC Codes>  (158) 
nan

>  <Indication Class>  (158) 
nan

>  <Patent>  (158) 
nan

>  <Drug Type>  (158) 
1:Synthetic Small Molecule

>  <Passes Rule of Five>  (158) 
True

>  <First In Class>  (158) 
False

>  <Chirality>  (158) 
Unknown

>  <Prodrug>  (158) 
False

>  <Oral>  (158) 
False

>  <Parenteral>  (158) 
False

>  <Topical>  (158) 
False

>  <Black Box>  (158) 
False

>  <Availability Type>  (158) 
Unknown

>  <Withdrawn Year>  (158) 
nan

>  <Withdrawn Reason>  (158) 
nan

>  <Withdrawn Country>  (158) 
nan

>  <Withdrawn Class>  (158) 
nan

>  <SMILES>  (158) 
O=C(O)c1ccccc1Nc1ccccc1

>  <InChi Key>  (158) 
ZWJINEZUASEZBH-UHFFFAOYSA-N

$$$$
CHEMBL114283
     RDKit          2D

 19 22  0  0  0  0  0  0  0  0999 V2000
   -3.2110   -9.3029    0.0000 N   0  0  0  0  0  0  0  0  0  0  0  0
   -3.0542   -7.8111    0.0000 C   0  0  0  0  0  0  0  0  0  0  0  0
   -4.2677   -6.9294    0.0000 C   0  0  0  0  0  0  0  0  0  0  0  0
   -4.1110   -5.4376    0.0000 C   0  0  0  0  0  0  0  0  0  0  0  0
   -2.7406   -4.8275    0.0000 C   0  0  0  0  0  0  0  0  0  0  0  0
   -1.5271   -5.7092    0.0000 C   0  0  0  0  0  0  0  0  0  0  0  0
   -1.6839   -7.2010    0.0000 C   0  0  0  0  0  0  0  0  0  0  0  0
   -0.1568   -5.0991    0.0000 C   0  0  0  0  0  0  0  0  0  0  0  0
    0.0000   -3.6073    0.0000 N   0  0  0  0  0  0  0  0  0  0  0  0
    1.2135   -2.7256    0.0000 C   0  0  0  0  0  0  0  0  0  0  0  0
    2.6401   -3.1891    0.0000 O   0  0  0  0  0  0  0  0  0  0  0  0
    0.7500   -1.2990    0.0000 C   0  0  0  0  0  0  0  0  0  0  0  0
    1.5000    0.0000    0.0000 C   0  0  0  0  0  0  0  0  0  0  0  0
    0.7500    1.2990    0.0000 C   0  0  0  0  0  0  0  0  0  0  0  0
   -0.7500    1.2990    0.0000 C   0  0  0  0  0  0  0  0  0  0  0  0
   -1.5000    0.0000    0.0000 C   0  0  0  0  0  0  0  0  0  0  0  0
   -0.7500   -1.2990    0.0000 C   0  0  0  0  0  0  0  0  0  0  0  0
   -1.2135   -2.7256    0.0000 C   0  0  0  0  0  0  0  0  0  0  0  0
   -2.5838   -3.3357    0.0000 N   0  0  0  0  0  0  0  0  0  0  0  0
  1  2  1  0
  2  3  2  0
  3  4  1  0
  4  5  2  0
  5  6  1  0
  6  7  2  0
  6  8  1  0
  8  9  1  0
  9 10  1  0
 10 11  2  0
 10 12  1  0
 12 13  2  0
 13 14  1  0
 14 15  2  0
 15 16  1  0
 16 17  2  0
 17 18  1  0
 18 19  2  0
  7  2  1  0
 18  9  1  0
 19  5  1  0
 17 12  1  0
M  END
>  <Synonyms>  (159) 
BATRACYLIN|BAY H 2049|DANIQUIDONE|NSC-320846

>  <Research Codes>  (159) 
BAY-H-2049|NSC-320846

>  <Phase>  (159) 
1

>  <Applicants>  (159) 
nan

>  <USAN Stem>  (159) 
nan

>  <USAN Year>  (159) 
nan

>  <USAN Stem Definition>  (159) 
nan

>  <USAN Stem Substem>  (159) 
nan

>  <First Approval>  (159) 
nan

>  <ATC Codes>  (159) 
nan

>  <Level 4 ATC Codes>  (159) 
nan

>  <Level 3 ATC Codes>  (159) 
nan

>  <Level 2 ATC Codes>  (159) 
nan

>  <Level 1 ATC Codes>  (159) 
nan

>  <Indication Class>  (159) 
nan

>  <Patent>  (159) 
nan

>  <Drug Type>  (159) 
1:Synthetic Small Molecule

>  <Passes Rule of Five>  (159) 
True

>  <First In Class>  (159) 
False

>  <Chirality>  (159) 
Achiral Molecule

>  <Prodrug>  (159) 
False

>  <Oral>  (159) 
False

>  <Parenteral>  (159) 
False

>  <Topical>  (159) 
False

>  <Black Box>  (159) 
False

>  <Availability Type>  (159) 
Unknown

>  <Withdrawn Year>  (159) 
nan

>  <Withdrawn Reason>  (159) 
nan

>  <Withdrawn Country>  (159) 
nan

>  <Withdrawn Class>  (159) 
nan

>  <SMILES>  (159) 
Nc1ccc2c(c1)CN1C(=O)c3ccccc3C1=N2

>  <InChi Key>  (159) 
SRIOCKJKFXAKHK-UHFFFAOYSA-N

$$$$
CHEMBL3793226
     RDKit          2D

 33 38  0  0  0  0  0  0  0  0999 V2000
    3.0000    0.0000    0.0000 O   0  0  0  0  0  0  0  0  0  0  0  0
    1.5000    0.0000    0.0000 C   0  0  0  0  0  0  0  0  0  0  0  0
    0.7500   -1.2990    0.0000 C   0  0  0  0  0  0  0  0  0  0  0  0
   -0.7500   -1.2990    0.0000 C   0  0  0  0  0  0  0  0  0  0  0  0
   -1.5000    0.0000    0.0000 C   0  0  0  0  0  0  0  0  0  0  0  0
   -3.0000    0.0000    0.0000 C   0  0  0  0  0  0  0  0  0  0  0  0
   -3.7500    1.2990    0.0000 C   0  0  0  0  0  0  0  0  0  0  0  0
   -3.0000    2.5981    0.0000 C   0  0  0  0  0  0  0  0  0  0  0  0
   -3.7500    3.8971    0.0000 F   0  0  0  0  0  0  0  0  0  0  0  0
   -1.5000    2.5981    0.0000 C   0  0  0  0  0  0  0  0  0  0  0  0
   -0.7500    1.2990    0.0000 C   0  0  0  0  0  0  0  0  0  0  0  0
    0.7500    1.2990    0.0000 N   0  0  0  0  0  0  0  0  0  0  0  0
    1.0619    2.7663    0.0000 C   0  0  0  0  0  0  0  0  0  0  0  0
   -0.2372    3.5163    0.0000 C   0  0  0  0  0  0  0  0  0  0  0  0
   -0.3940    5.0080    0.0000 C   0  0  0  0  0  0  0  0  0  0  0  0
    0.8196    5.8897    0.0000 N   0  0  0  0  0  0  0  0  0  0  0  0
    2.1899    5.2796    0.0000 C   0  0  0  0  0  0  0  0  0  0  0  0
    3.4034    6.1613    0.0000 C   0  0  0  0  0  0  0  0  0  0  0  0
    3.2466    7.6531    0.0000 C   0  0  0  0  0  0  0  0  0  0  0  0
    4.4601    8.5348    0.0000 N   0  0  0  0  0  0  0  0  0  0  0  0
    5.8305    7.9246    0.0000 C   0  0  0  0  0  0  0  0  0  0  0  0
    7.0440    8.8063    0.0000 C   0  0  0  0  0  0  0  0  0  0  0  0
    8.4143    8.1962    0.0000 C   0  0  0  0  0  0  0  0  0  0  0  0
    9.6278    9.0779    0.0000 C   0  0  0  0  0  0  0  0  0  0  0  0
    9.4710   10.5697    0.0000 C   0  0  0  0  0  0  0  0  0  0  0  0
    8.1007   11.1798    0.0000 N   0  0  0  0  0  0  0  0  0  0  0  0
    6.8872   10.2981    0.0000 N   0  0  0  0  0  0  0  0  0  0  0  0
   10.6846   11.4514    0.0000 O   0  0  0  0  0  0  0  0  0  0  0  0
   12.0549   10.8413    0.0000 C   0  0  0  0  0  0  0  0  0  0  0  0
   12.2117    9.3495    0.0000 C   0  0  0  0  0  0  0  0  0  0  0  0
   10.9981    8.4678    0.0000 O   0  0  0  0  0  0  0  0  0  0  0  0
    1.8763    8.2632    0.0000 C   0  0  0  0  0  0  0  0  0  0  0  0
    0.6628    7.3815    0.0000 C   0  0  0  0  0  0  0  0  0  0  0  0
  1  2  2  0
  2  3  1  0
  3  4  2  0
  4  5  1  0
  5  6  2  0
  6  7  1  0
  7  8  2  0
  8  9  1  0
  8 10  1  0
 10 11  2  0
 11 12  1  0
 12 13  1  0
 13 14  1  0
 14 15  1  6
 15 16  1  0
 16 17  1  0
 17 18  1  0
 18 19  1  0
 19 20  1  0
 20 21  1  0
 21 22  1  0
 22 23  2  0
 23 24  1  0
 24 25  2  0
 25 26  1  0
 26 27  2  0
 25 28  1  0
 28 29  1  0
 29 30  1  0
 30 31  1  0
 19 32  1  0
 32 33  1  0
 12  2  1  0
 33 16  1  0
 11  5  1  0
 27 22  1  0
 14 10  1  0
 31 24  1  0
M  END
>  <Synonyms>  (160) 
GSK-945237|GSK945237

>  <Research Codes>  (160) 
GSK945237

>  <Phase>  (160) 
1

>  <Applicants>  (160) 
nan

>  <USAN Stem>  (160) 
nan

>  <USAN Year>  (160) 
nan

>  <USAN Stem Definition>  (160) 
nan

>  <USAN Stem Substem>  (160) 
nan

>  <First Approval>  (160) 
nan

>  <ATC Codes>  (160) 
nan

>  <Level 4 ATC Codes>  (160) 
nan

>  <Level 3 ATC Codes>  (160) 
nan

>  <Level 2 ATC Codes>  (160) 
nan

>  <Level 1 ATC Codes>  (160) 
nan

>  <Indication Class>  (160) 
nan

>  <Patent>  (160) 
nan

>  <Drug Type>  (160) 
1:Synthetic Small Molecule

>  <Passes Rule of Five>  (160) 
True

>  <First In Class>  (160) 
False

>  <Chirality>  (160) 
Single Stereoisomer

>  <Prodrug>  (160) 
False

>  <Oral>  (160) 
False

>  <Parenteral>  (160) 
False

>  <Topical>  (160) 
False

>  <Black Box>  (160) 
False

>  <Availability Type>  (160) 
Unknown

>  <Withdrawn Year>  (160) 
nan

>  <Withdrawn Reason>  (160) 
nan

>  <Withdrawn Country>  (160) 
nan

>  <Withdrawn Class>  (160) 
nan

>  <SMILES>  (160) 
O=c1ccc2ccc(F)c3c2n1C[C@H]3CN1CCC(NCc2cc3c(nn2)OCCO3)CC1

>  <InChi Key>  (160) 
SRICOHRDRMZREQ-MRXNPFEDSA-N

$$$$
CHEMBL1944698
     RDKit          2D

 28 31  0  0  0  0  0  0  0  0999 V2000
   -3.2605   -9.9841    0.0000 C   0  0  0  0  0  0  0  0  0  0  0  0
   -3.0000   -8.5069    0.0000 N   0  0  0  0  0  0  0  0  0  0  0  0
   -1.5000   -8.5069    0.0000 C   0  0  0  0  0  0  0  0  0  0  0  0
   -0.0905   -7.9939    0.0000 C   0  0  0  0  0  0  0  0  0  0  0  0
    1.0586   -7.0297    0.0000 C   0  0  0  0  0  0  0  0  0  0  0  0
    1.8086   -5.7307    0.0000 C   0  0  0  0  0  0  0  0  0  0  0  0
    2.0691   -4.2535    0.0000 C   0  0  0  0  0  0  0  0  0  0  0  0
    1.8086   -2.7762    0.0000 O   0  0  0  0  0  0  0  0  0  0  0  0
    0.7500   -1.2990    0.0000 C   0  0  0  0  0  0  0  0  0  0  0  0
    1.5000    0.0000    0.0000 C   0  0  0  0  0  0  0  0  0  0  0  0
    0.7500    1.2990    0.0000 C   0  0  0  0  0  0  0  0  0  0  0  0
   -0.7500    1.2990    0.0000 C   0  0  0  0  0  0  0  0  0  0  0  0
   -1.5000    0.0000    0.0000 C   0  0  0  0  0  0  0  0  0  0  0  0
   -0.7500   -1.2990    0.0000 C   0  0  0  0  0  0  0  0  0  0  0  0
   -3.0000    0.0000    0.0000 C   0  0  0  0  0  0  0  0  0  0  0  0
   -4.0586    1.1209    0.0000 C   0  0  0  0  0  0  0  0  0  0  0  0
   -5.5586    1.1209    0.0000 C   0  0  0  0  0  0  0  0  0  0  0  0
   -6.3086   -0.1782    0.0000 N   0  0  0  0  0  0  0  0  0  0  0  0
   -5.5586   -1.4772    0.0000 C   0  0  0  0  0  0  0  0  0  0  0  0
   -4.4095   -0.5130    0.0000 N   0  0  0  0  0  0  0  0  0  0  0  0
   -6.3086   -2.7762    0.0000 N   0  0  0  0  0  0  0  0  0  0  0  0
   -6.5691   -4.2535    0.0000 C   0  0  0  0  0  0  0  0  0  0  0  0
   -7.8567   -5.1013    0.0000 C   0  0  0  0  0  0  0  0  0  0  0  0
   -8.1172   -6.5786    0.0000 C   0  0  0  0  0  0  0  0  0  0  0  0
   -6.9681   -7.5427    0.0000 C   0  0  0  0  0  0  0  0  0  0  0  0
   -5.5586   -7.0297    0.0000 C   0  0  0  0  0  0  0  0  0  0  0  0
   -6.3086   -5.7307    0.0000 C   0  0  0  0  0  0  0  0  0  0  0  0
   -4.4095   -7.9939    0.0000 C   0  0  0  0  0  0  0  0  0  0  0  0
  1  2  1  0
  2  3  1  0
  3  4  1  0
  4  5  2  0
  5  6  1  0
  6  7  1  0
  7  8  1  0
  8  9  1  0
  9 10  1  0
 10 11  2  0
 11 12  1  0
 12 13  2  0
 13 14  1  0
 13 15  1  0
 15 16  1  0
 16 17  2  0
 17 18  1  0
 18 19  2  0
 19 20  1  0
 19 21  1  0
 21 22  1  0
 22 23  1  0
 23 24  2  0
 24 25  1  0
 25 26  2  0
 26 27  1  0
 26 28  1  0
 28  2  1  0
 14  9  2  0
 20 15  2  0
 27 22  2  0
M  END
>  <Synonyms>  (161) 
EX45|SB-1317|SB1317|TG-02|TG02|ZOTIRACICLIB

>  <Research Codes>  (161) 
EX45|SB-1317|SB1317|TG02

>  <Phase>  (161) 
1

>  <Applicants>  (161) 
nan

>  <USAN Stem>  (161) 
'-ciclib'

>  <USAN Year>  (161) 
2019.0

>  <USAN Stem Definition>  (161) 
cyclin dependent kinase inhibitors

>  <USAN Stem Substem>  (161) 
'-ciclib(-ciclib)'

>  <First Approval>  (161) 
nan

>  <ATC Codes>  (161) 
nan

>  <Level 4 ATC Codes>  (161) 
nan

>  <Level 3 ATC Codes>  (161) 
nan

>  <Level 2 ATC Codes>  (161) 
nan

>  <Level 1 ATC Codes>  (161) 
nan

>  <Indication Class>  (161) 
nan

>  <Patent>  (161) 
nan

>  <Drug Type>  (161) 
7:Natural Product-derived

>  <Passes Rule of Five>  (161) 
True

>  <First In Class>  (161) 
False

>  <Chirality>  (161) 
Single Stereoisomer

>  <Prodrug>  (161) 
False

>  <Oral>  (161) 
False

>  <Parenteral>  (161) 
False

>  <Topical>  (161) 
False

>  <Black Box>  (161) 
False

>  <Availability Type>  (161) 
Unknown

>  <Withdrawn Year>  (161) 
nan

>  <Withdrawn Reason>  (161) 
nan

>  <Withdrawn Country>  (161) 
nan

>  <Withdrawn Class>  (161) 
nan

>  <SMILES>  (161) 
CN1C/C=C/CCOc2cccc(c2)-c2ccnc(n2)Nc2cccc(c2)C1

>  <InChi Key>  (161) 
VXBAJLGYBMTJCY-NSCUHMNNSA-N

$$$$
CHEMBL1235551
     RDKit          2D

 23 26  0  0  0  0  0  0  0  0999 V2000
   -6.0000   -5.1962    0.0000 O   0  0  0  0  0  0  0  0  0  0  0  0
   -5.2500   -3.8971    0.0000 C   0  0  0  0  0  0  0  0  0  0  0  0
   -6.0000   -2.5981    0.0000 C   0  0  0  0  0  0  0  0  0  0  0  0
   -5.2500   -1.2990    0.0000 C   0  0  0  0  0  0  0  0  0  0  0  0
   -6.0000    0.0000    0.0000 C   0  0  0  0  0  0  0  0  0  0  0  0
   -7.5000    0.0000    0.0000 C   0  0  0  0  0  0  0  0  0  0  0  0
   -8.2500   -1.2990    0.0000 C   0  0  0  0  0  0  0  0  0  0  0  0
   -7.5000   -2.5981    0.0000 C   0  0  0  0  0  0  0  0  0  0  0  0
   -3.7500   -3.8971    0.0000 N   0  0  0  0  0  0  0  0  0  0  0  0
   -3.0000   -5.1962    0.0000 C   0  0  0  0  0  0  0  0  0  0  0  0
   -1.5000   -5.1962    0.0000 C   0  0  0  0  0  0  0  0  0  0  0  0
   -0.7500   -6.4952    0.0000 O   0  0  0  0  0  0  0  0  0  0  0  0
   -0.7500   -3.8971    0.0000 N   0  0  0  0  0  0  0  0  0  0  0  0
    0.7500   -3.8971    0.0000 C   0  0  0  0  0  0  0  0  0  0  0  0
    1.5000   -2.5981    0.0000 C   0  0  0  0  0  0  0  0  0  0  0  0
    0.7500   -1.2990    0.0000 C   0  0  0  0  0  0  0  0  0  0  0  0
    1.5000    0.0000    0.0000 C   0  0  0  0  0  0  0  0  0  0  0  0
    0.7500    1.2990    0.0000 C   0  0  0  0  0  0  0  0  0  0  0  0
   -0.7500    1.2990    0.0000 C   0  0  0  0  0  0  0  0  0  0  0  0
   -1.5000    0.0000    0.0000 C   0  0  0  0  0  0  0  0  0  0  0  0
   -0.7500   -1.2990    0.0000 C   0  0  0  0  0  0  0  0  0  0  0  0
   -1.5000   -2.5981    0.0000 C   0  0  0  0  0  0  0  0  0  0  0  0
   -3.0000   -2.5981    0.0000 C   0  0  0  0  0  0  0  0  0  0  0  0
  1  2  2  0
  2  3  1  0
  3  4  1  0
  4  5  1  0
  5  6  1  0
  6  7  1  0
  7  8  1  0
  2  9  1  0
  9 10  1  0
 10 11  1  0
 11 12  2  0
 11 13  1  0
 13 14  1  0
 14 15  1  0
 15 16  1  0
 16 17  2  0
 17 18  1  0
 18 19  2  0
 19 20  1  0
 20 21  2  0
 21 22  1  0
 22 23  1  1
  8  3  1  0
 23  9  1  0
 22 13  1  0
 21 16  1  0
M  END
>  <Synonyms>  (162) 
MSC-2499550A|MSC2499550A|PRAZIQUANTEL, (R)-

>  <Research Codes>  (162) 
MSC-2499550A|MSC2499550A

>  <Phase>  (162) 
1

>  <Applicants>  (162) 
nan

>  <USAN Stem>  (162) 
nan

>  <USAN Year>  (162) 
nan

>  <USAN Stem Definition>  (162) 
nan

>  <USAN Stem Substem>  (162) 
nan

>  <First Approval>  (162) 
nan

>  <ATC Codes>  (162) 
nan

>  <Level 4 ATC Codes>  (162) 
nan

>  <Level 3 ATC Codes>  (162) 
nan

>  <Level 2 ATC Codes>  (162) 
nan

>  <Level 1 ATC Codes>  (162) 
nan

>  <Indication Class>  (162) 
nan

>  <Patent>  (162) 
nan

>  <Drug Type>  (162) 
1:Synthetic Small Molecule

>  <Passes Rule of Five>  (162) 
True

>  <First In Class>  (162) 
False

>  <Chirality>  (162) 
Single Stereoisomer

>  <Prodrug>  (162) 
False

>  <Oral>  (162) 
False

>  <Parenteral>  (162) 
False

>  <Topical>  (162) 
False

>  <Black Box>  (162) 
False

>  <Availability Type>  (162) 
Unknown

>  <Withdrawn Year>  (162) 
nan

>  <Withdrawn Reason>  (162) 
nan

>  <Withdrawn Country>  (162) 
nan

>  <Withdrawn Class>  (162) 
nan

>  <SMILES>  (162) 
O=C(C1CCCCC1)N1CC(=O)N2CCc3ccccc3[C@@H]2C1

>  <InChi Key>  (162) 
FSVJFNAIGNNGKK-KRWDZBQOSA-N

$$$$
CHEMBL129857
     RDKit          2D

 26 29  0  0  0  0  0  0  0  0999 V2000
    3.7500   -1.2990    0.0000 C   0  0  0  0  0  0  0  0  0  0  0  0
    3.0000    0.0000    0.0000 O   0  0  0  0  0  0  0  0  0  0  0  0
    1.5000    0.0000    0.0000 C   0  0  0  0  0  0  0  0  0  0  0  0
    0.7500   -1.2990    0.0000 C   0  0  0  0  0  0  0  0  0  0  0  0
   -0.7500   -1.2990    0.0000 C   0  0  0  0  0  0  0  0  0  0  0  0
   -1.5000    0.0000    0.0000 C   0  0  0  0  0  0  0  0  0  0  0  0
   -0.7500    1.2990    0.0000 C   0  0  0  0  0  0  0  0  0  0  0  0
   -1.5000    2.5981    0.0000 N   0  0  0  0  0  0  0  0  0  0  0  0
   -0.7500    3.8971    0.0000 C   0  0  0  0  0  0  0  0  0  0  0  0
   -1.5000    5.1962    0.0000 C   0  0  0  0  0  0  0  0  0  0  0  0
   -2.9918    5.3529    0.0000 C   0  0  0  0  0  0  0  0  0  0  0  0
   -3.3037    6.8202    0.0000 C   0  0  0  0  0  0  0  0  0  0  0  0
   -2.0046    7.5702    0.0000 C   0  0  0  0  0  0  0  0  0  0  0  0
   -0.8899    6.5665    0.0000 S   0  0  0  0  0  0  0  0  0  0  0  0
    0.7500    3.8971    0.0000 N   0  0  0  0  0  0  0  0  0  0  0  0
    1.5000    2.5981    0.0000 C   0  0  0  0  0  0  0  0  0  0  0  0
    3.0000    2.5981    0.0000 N   0  0  0  0  0  0  0  0  0  0  0  0
    3.7500    3.8971    0.0000 N   0  0  0  0  0  0  0  0  0  0  0  0
    3.1399    5.2674    0.0000 C   0  0  0  0  0  0  0  0  0  0  0  0
    1.6727    5.5793    0.0000 O   0  0  0  0  0  0  0  0  0  0  0  0
    4.2546    6.2711    0.0000 C   0  0  0  0  0  0  0  0  0  0  0  0
    5.5537    5.5211    0.0000 C   0  0  0  0  0  0  0  0  0  0  0  0
    6.9240    6.1312    0.0000 C   0  0  0  0  0  0  0  0  0  0  0  0
    5.2418    4.0539    0.0000 C   0  0  0  0  0  0  0  0  0  0  0  0
    6.2455    2.9392    0.0000 O   0  0  0  0  0  0  0  0  0  0  0  0
    0.7500    1.2990    0.0000 C   0  0  0  0  0  0  0  0  0  0  0  0
  1  2  1  0
  2  3  1  0
  3  4  2  0
  4  5  1  0
  5  6  2  0
  6  7  1  0
  7  8  1  0
  8  9  1  0
  9 10  1  0
 10 11  2  0
 11 12  1  0
 12 13  2  0
 13 14  1  0
  9 15  2  0
 15 16  1  0
 16 17  2  3
 17 18  1  0
 18 19  1  0
 19 20  2  0
 19 21  1  0
 21 22  2  0
 22 23  1  0
 22 24  1  0
 24 25  2  0
 16 26  1  0
 26  3  1  0
 26  7  2  0
 14 10  1  0
 24 18  1  0
M  END
>  <Synonyms>  (163) 
AS-602868|SPC-839

>  <Research Codes>  (163) 
SPC-839

>  <Phase>  (163) 
1

>  <Applicants>  (163) 
nan

>  <USAN Stem>  (163) 
nan

>  <USAN Year>  (163) 
nan

>  <USAN Stem Definition>  (163) 
nan

>  <USAN Stem Substem>  (163) 
nan

>  <First Approval>  (163) 
nan

>  <ATC Codes>  (163) 
nan

>  <Level 4 ATC Codes>  (163) 
nan

>  <Level 3 ATC Codes>  (163) 
nan

>  <Level 2 ATC Codes>  (163) 
nan

>  <Level 1 ATC Codes>  (163) 
nan

>  <Indication Class>  (163) 
nan

>  <Patent>  (163) 
nan

>  <Drug Type>  (163) 
1:Synthetic Small Molecule

>  <Passes Rule of Five>  (163) 
True

>  <First In Class>  (163) 
False

>  <Chirality>  (163) 
Achiral Molecule

>  <Prodrug>  (163) 
False

>  <Oral>  (163) 
False

>  <Parenteral>  (163) 
False

>  <Topical>  (163) 
False

>  <Black Box>  (163) 
False

>  <Availability Type>  (163) 
Unknown

>  <Withdrawn Year>  (163) 
nan

>  <Withdrawn Reason>  (163) 
nan

>  <Withdrawn Country>  (163) 
nan

>  <Withdrawn Class>  (163) 
nan

>  <SMILES>  (163) 
COc1cccc2nc(-c3cccs3)nc(NN3C(=O)C=C(C)C3=O)c12

>  <InChi Key>  (163) 
GZGLPBNOIFLLRE-UHFFFAOYSA-N

$$$$
CHEMBL512306
     RDKit          2D

 29 31  0  0  0  0  0  0  0  0999 V2000
   -7.7227   -2.1088    0.0000 C   0  0  0  0  0  0  0  0  0  0  0  0
   -6.2961   -1.6453    0.0000 C   0  0  0  0  0  0  0  0  0  0  0  0
   -5.1814   -2.6490    0.0000 N   0  0  0  0  0  0  0  0  0  0  0  0
   -5.4933   -4.1162    0.0000 C   0  0  0  0  0  0  0  0  0  0  0  0
   -6.9199   -4.5797    0.0000 C   0  0  0  0  0  0  0  0  0  0  0  0
   -3.7548   -2.1855    0.0000 C   0  0  0  0  0  0  0  0  0  0  0  0
   -3.4430   -0.7182    0.0000 O   0  0  0  0  0  0  0  0  0  0  0  0
   -2.6401   -3.1891    0.0000 C   0  0  0  0  0  0  0  0  0  0  0  0
   -1.2135   -2.7256    0.0000 C   0  0  0  0  0  0  0  0  0  0  0  0
   -0.0000   -3.6073    0.0000 C   0  0  0  0  0  0  0  0  0  0  0  0
   -0.0000   -5.1073    0.0000 C   0  0  0  0  0  0  0  0  0  0  0  0
    1.2990   -5.8573    0.0000 C   0  0  0  0  0  0  0  0  0  0  0  0
    1.2990   -7.3573    0.0000 C   0  0  0  0  0  0  0  0  0  0  0  0
   -0.0000   -8.1073    0.0000 C   0  0  0  0  0  0  0  0  0  0  0  0
   -0.0000   -9.6073    0.0000 O   0  0  0  0  0  0  0  0  0  0  0  0
    1.2990  -10.3573    0.0000 C   0  0  0  0  0  0  0  0  0  0  0  0
    1.2990  -11.8573    0.0000 C   0  0  0  0  0  0  0  0  0  0  0  0
    2.5981  -12.6073    0.0000 F   0  0  0  0  0  0  0  0  0  0  0  0
   -1.2990   -7.3573    0.0000 C   0  0  0  0  0  0  0  0  0  0  0  0
   -1.2990   -5.8573    0.0000 C   0  0  0  0  0  0  0  0  0  0  0  0
    1.2135   -2.7256    0.0000 N   0  0  0  0  0  0  0  0  0  0  0  0
    0.7500   -1.2990    0.0000 N   0  0  0  0  0  0  0  0  0  0  0  0
    1.5000    0.0000    0.0000 C   0  0  0  0  0  0  0  0  0  0  0  0
    3.0000    0.0000    0.0000 C   0  0  0  0  0  0  0  0  0  0  0  0
    0.7500    1.2990    0.0000 C   0  0  0  0  0  0  0  0  0  0  0  0
   -0.7500    1.2990    0.0000 C   0  0  0  0  0  0  0  0  0  0  0  0
   -1.5000    2.5981    0.0000 C   0  0  0  0  0  0  0  0  0  0  0  0
   -1.5000    0.0000    0.0000 N   0  0  0  0  0  0  0  0  0  0  0  0
   -0.7500   -1.2990    0.0000 C   0  0  0  0  0  0  0  0  0  0  0  0
  1  2  1  0
  2  3  1  0
  3  4  1  0
  4  5  1  0
  3  6  1  0
  6  7  2  0
  6  8  1  0
  8  9  1  0
  9 10  1  0
 10 11  1  0
 11 12  2  0
 12 13  1  0
 13 14  2  0
 14 15  1  0
 15 16  1  0
 16 17  1  0
 17 18  1  0
 14 19  1  0
 19 20  2  0
 10 21  2  0
 21 22  1  0
 22 23  1  0
 23 24  1  0
 23 25  2  0
 25 26  1  0
 26 27  1  0
 26 28  2  0
 28 29  1  0
 29  9  2  0
 20 11  1  0
 29 22  1  0
M  END
>  <Synonyms>  (164) 
nan

>  <Research Codes>  (164) 
nan

>  <Phase>  (164) 
1

>  <Applicants>  (164) 
nan

>  <USAN Stem>  (164) 
nan

>  <USAN Year>  (164) 
nan

>  <USAN Stem Definition>  (164) 
nan

>  <USAN Stem Substem>  (164) 
nan

>  <First Approval>  (164) 
nan

>  <ATC Codes>  (164) 
nan

>  <Level 4 ATC Codes>  (164) 
nan

>  <Level 3 ATC Codes>  (164) 
nan

>  <Level 2 ATC Codes>  (164) 
nan

>  <Level 1 ATC Codes>  (164) 
nan

>  <Indication Class>  (164) 
nan

>  <Patent>  (164) 
nan

>  <Drug Type>  (164) 
1:Synthetic Small Molecule

>  <Passes Rule of Five>  (164) 
True

>  <First In Class>  (164) 
False

>  <Chirality>  (164) 
Unknown

>  <Prodrug>  (164) 
False

>  <Oral>  (164) 
False

>  <Parenteral>  (164) 
False

>  <Topical>  (164) 
False

>  <Black Box>  (164) 
False

>  <Availability Type>  (164) 
Unknown

>  <Withdrawn Year>  (164) 
nan

>  <Withdrawn Reason>  (164) 
nan

>  <Withdrawn Country>  (164) 
nan

>  <Withdrawn Class>  (164) 
nan

>  <SMILES>  (164) 
CCN(CC)C(=O)Cc1c(-c2ccc(OCCF)cc2)nn2c(C)cc(C)nc12

>  <InChi Key>  (164) 
FLZZFWBNYJNHMY-UHFFFAOYSA-N

$$$$
CHEMBL457077
     RDKit          2D

 36 38  0  0  0  0  0  0  0  0999 V2000
    3.0000   -5.1962    0.0000 O   0  0  0  0  0  0  0  0  0  0  0  0
    1.5000   -5.1962    0.0000 C   0  0  0  0  0  0  0  0  0  0  0  0
    0.7500   -3.8971    0.0000 C   0  0  0  0  0  0  0  0  0  0  0  0
    1.5000   -2.5981    0.0000 C   0  0  0  0  0  0  0  0  0  0  0  0
    0.7500   -1.2990    0.0000 C   0  0  0  0  0  0  0  0  0  0  0  0
    1.5000    0.0000    0.0000 C   0  0  0  0  0  0  0  0  0  0  0  0
    0.7500    1.2990    0.0000 C   0  0  0  0  0  0  0  0  0  0  0  0
   -0.7500    1.2990    0.0000 C   0  0  0  0  0  0  0  0  0  0  0  0
   -1.5000    2.5981    0.0000 O   0  0  0  0  0  0  0  0  0  0  0  0
   -1.5000    0.0000    0.0000 C   0  0  0  0  0  0  0  0  0  0  0  0
   -3.0000    0.0000    0.0000 O   0  0  0  0  0  0  0  0  0  0  0  0
   -0.7500   -1.2990    0.0000 C   0  0  0  0  0  0  0  0  0  0  0  0
   -1.5000   -2.5981    0.0000 C   0  0  0  0  0  0  0  0  0  0  0  0
   -3.0000   -2.5981    0.0000 C   0  0  0  0  0  0  0  0  0  0  0  0
   -3.7500   -3.8971    0.0000 C   0  0  0  0  0  0  0  0  0  0  0  0
   -5.2500   -3.8971    0.0000 C   0  0  0  0  0  0  0  0  0  0  0  0
   -6.0000   -5.1962    0.0000 C   0  0  0  0  0  0  0  0  0  0  0  0
   -5.2500   -6.4952    0.0000 C   0  0  0  0  0  0  0  0  0  0  0  0
   -6.0000   -7.7942    0.0000 O   0  0  0  0  0  0  0  0  0  0  0  0
   -3.7500   -6.4952    0.0000 C   0  0  0  0  0  0  0  0  0  0  0  0
   -3.0000   -7.7942    0.0000 O   0  0  0  0  0  0  0  0  0  0  0  0
   -3.0000   -5.1962    0.0000 C   0  0  0  0  0  0  0  0  0  0  0  0
    0.7500   -6.4952    0.0000 O   0  0  0  0  0  0  0  0  0  0  0  0
    1.5000   -7.7942    0.0000 C   0  0  0  0  0  0  0  0  0  0  0  0
    0.7500   -9.0933    0.0000 C   0  0  0  0  0  0  0  0  0  0  0  0
    1.5000  -10.3923    0.0000 C   0  0  0  0  0  0  0  0  0  0  0  0
    0.7500  -11.6913    0.0000 C   0  0  0  0  0  0  0  0  0  0  0  0
    1.5000  -12.9904    0.0000 C   0  0  0  0  0  0  0  0  0  0  0  0
    3.0000  -12.9904    0.0000 C   0  0  0  0  0  0  0  0  0  0  0  0
    3.7500  -14.2894    0.0000 O   0  0  0  0  0  0  0  0  0  0  0  0
    3.7500  -11.6913    0.0000 C   0  0  0  0  0  0  0  0  0  0  0  0
    5.2500  -11.6913    0.0000 O   0  0  0  0  0  0  0  0  0  0  0  0
    3.0000  -10.3923    0.0000 C   0  0  0  0  0  0  0  0  0  0  0  0
    3.0000   -7.7942    0.0000 C   0  0  0  0  0  0  0  0  0  0  0  0
    3.7500   -6.4952    0.0000 O   0  0  0  0  0  0  0  0  0  0  0  0
    3.7500   -9.0933    0.0000 O   0  0  0  0  0  0  0  0  0  0  0  0
  1  2  2  0
  2  3  1  0
  3  4  2  3
  4  5  1  0
  5  6  2  0
  6  7  1  0
  7  8  2  0
  8  9  1  0
  8 10  1  0
 10 11  1  0
 10 12  2  0
 12 13  1  0
 13 14  2  3
 14 15  1  0
 15 16  2  0
 16 17  1  0
 17 18  2  0
 18 19  1  0
 18 20  1  0
 20 21  1  0
 20 22  2  0
  2 23  1  0
 23 24  1  0
 24 25  1  0
 25 26  1  0
 26 27  2  0
 27 28  1  0
 28 29  2  0
 29 30  1  0
 29 31  1  0
 31 32  1  0
 31 33  2  0
 24 34  1  0
 34 35  2  0
 34 36  1  0
 12  5  1  0
 22 15  1  0
 33 26  1  0
M  END
>  <Synonyms>  (165) 
SALVIANOLIC ACID A

>  <Research Codes>  (165) 
nan

>  <Phase>  (165) 
1

>  <Applicants>  (165) 
nan

>  <USAN Stem>  (165) 
'sal-'

>  <USAN Year>  (165) 
nan

>  <USAN Stem Definition>  (165) 
anti-inflammatory agents (salicylic acid derivatives)

>  <USAN Stem Substem>  (165) 
'sal-(sal-)'

>  <First Approval>  (165) 
nan

>  <ATC Codes>  (165) 
nan

>  <Level 4 ATC Codes>  (165) 
nan

>  <Level 3 ATC Codes>  (165) 
nan

>  <Level 2 ATC Codes>  (165) 
nan

>  <Level 1 ATC Codes>  (165) 
nan

>  <Indication Class>  (165) 
nan

>  <Patent>  (165) 
nan

>  <Drug Type>  (165) 
1:Synthetic Small Molecule

>  <Passes Rule of Five>  (165) 
False

>  <First In Class>  (165) 
False

>  <Chirality>  (165) 
Single Stereoisomer

>  <Prodrug>  (165) 
False

>  <Oral>  (165) 
False

>  <Parenteral>  (165) 
False

>  <Topical>  (165) 
False

>  <Black Box>  (165) 
False

>  <Availability Type>  (165) 
Unknown

>  <Withdrawn Year>  (165) 
nan

>  <Withdrawn Reason>  (165) 
nan

>  <Withdrawn Country>  (165) 
nan

>  <Withdrawn Class>  (165) 
nan

>  <SMILES>  (165) 
O=C(/C=C/c1ccc(O)c(O)c1/C=C/c1ccc(O)c(O)c1)O[C@H](Cc1ccc(O)c(O)c1)C(=O)O

>  <InChi Key>  (165) 
YMGFTDKNIWPMGF-UHFFFAOYSA-N

$$$$
CHEMBL508583
     RDKit          2D

 47 50  0  0  0  0  0  0  0  0999 V2000
   11.0874   -5.0022    0.0000 C   0  0  0  0  0  0  0  0  0  0  0  0
    9.9727   -6.0059    0.0000 C   0  0  0  0  0  0  0  0  0  0  0  0
   10.2846   -7.4731    0.0000 C   0  0  0  0  0  0  0  0  0  0  0  0
    8.5461   -5.5424    0.0000 C   0  0  0  0  0  0  0  0  0  0  0  0
    7.4314   -6.5461    0.0000 C   0  0  0  0  0  0  0  0  0  0  0  0
    6.0048   -6.0826    0.0000 C   0  0  0  0  0  0  0  0  0  0  0  0
    4.8901   -7.0863    0.0000 C   0  0  0  0  0  0  0  0  0  0  0  0
    5.2020   -8.5535    0.0000 C   0  0  0  0  0  0  0  0  0  0  0  0
    3.4635   -6.6227    0.0000 C   0  0  0  0  0  0  0  0  0  0  0  0
    2.2500   -7.5044    0.0000 C   0  0  0  0  0  0  0  0  0  0  0  0
    1.0365   -6.6227    0.0000 C   0  0  0  0  0  0  0  0  0  0  0  0
    1.5000   -5.1962    0.0000 C   0  0  0  0  0  0  0  0  0  0  0  0
    0.7500   -3.8971    0.0000 C   0  0  0  0  0  0  0  0  0  0  0  0
    1.5000   -2.5981    0.0000 C   0  0  0  0  0  0  0  0  0  0  0  0
    3.0000   -2.5981    0.0000 C   0  0  0  0  0  0  0  0  0  0  0  0
    3.7500   -3.8971    0.0000 C   0  0  0  0  0  0  0  0  0  0  0  0
    3.0000   -5.1962    0.0000 C   0  0  0  0  0  0  0  0  0  0  0  0
    4.4918   -5.3529    0.0000 C   0  0  0  0  0  0  0  0  0  0  0  0
    0.7500   -1.2990    0.0000 C   0  0  0  0  0  0  0  0  0  0  0  0
    2.2500   -1.2990    0.0000 C   0  0  0  0  0  0  0  0  0  0  0  0
    1.5000    0.0000    0.0000 C   0  0  0  0  0  0  0  0  0  0  0  0
    0.7500    1.2990    0.0000 C   0  0  0  0  0  0  0  0  0  0  0  0
   -0.7500    1.2990    0.0000 C   0  0  0  0  0  0  0  0  0  0  0  0
   -1.5000    2.5981    0.0000 N   0  0  0  0  0  0  0  0  0  0  0  0
   -0.7500    3.8971    0.0000 C   0  0  0  0  0  0  0  0  0  0  0  0
   -1.5000    5.1962    0.0000 C   0  0  0  0  0  0  0  0  0  0  0  0
   -0.7500    6.4952    0.0000 C   0  0  0  0  0  0  0  0  0  0  0  0
   -1.5000    7.7942    0.0000 N   0  0  0  0  0  0  0  0  0  0  0  0
   -0.7500    9.0933    0.0000 C   0  0  0  0  0  0  0  0  0  0  0  0
   -1.5000   10.3923    0.0000 C   0  0  0  0  0  0  0  0  0  0  0  0
   -0.7500   11.6913    0.0000 C   0  0  0  0  0  0  0  0  0  0  0  0
   -1.5000   12.9904    0.0000 C   0  0  0  0  0  0  0  0  0  0  0  0
   -0.7500   14.2894    0.0000 N   0  0  0  0  0  0  0  0  0  0  0  0
   -1.5000   15.5885    0.0000 C   0  0  0  0  0  0  0  0  0  0  0  0
   -0.7500   16.8875    0.0000 C   0  0  0  0  0  0  0  0  0  0  0  0
   -1.5000   18.1865    0.0000 C   0  0  0  0  0  0  0  0  0  0  0  0
   -0.7500   19.4856    0.0000 N   0  0  0  0  0  0  0  0  0  0  0  0
   -1.5000    0.0000    0.0000 C   0  0  0  0  0  0  0  0  0  0  0  0
   -0.7500   -1.2990    0.0000 C   0  0  0  0  0  0  0  0  0  0  0  0
   -1.5000   -2.5981    0.0000 C   0  0  0  0  0  0  0  0  0  0  0  0
   -0.7500   -3.8971    0.0000 C   0  0  0  0  0  0  0  0  0  0  0  0
   -1.5000   -5.1962    0.0000 O   0  0  0  0  0  0  0  0  0  0  0  0
    8.2343   -4.0752    0.0000 O   0  0  0  0  0  0  0  0  0  0  0  0
    9.3490   -3.0715    0.0000 S   0  0  0  0  0  0  0  0  0  0  0  0
   10.3527   -4.1862    0.0000 O   0  0  0  0  0  0  0  0  0  0  0  0
    8.3453   -1.9568    0.0000 O   0  0  0  0  0  0  0  0  0  0  0  0
   10.4637   -2.0678    0.0000 O   0  0  0  0  0  0  0  0  0  0  0  0
  1  2  1  0
  2  3  1  0
  2  4  1  0
  4  5  1  1
  5  6  1  0
  6  7  1  0
  7  8  1  1
  7  9  1  0
  9 10  1  1
 10 11  1  0
 12 11  1  1
 12 13  1  0
 13 14  1  0
 14 15  1  1
 15 16  1  0
 16 17  1  0
 17 18  1  1
 14 19  1  0
 19 20  1  1
 19 21  1  0
 21 22  1  0
 22 23  1  0
 23 24  1  1
 24 25  1  0
 25 26  1  0
 26 27  1  0
 27 28  1  0
 28 29  1  0
 29 30  1  0
 30 31  1  0
 31 32  1  0
 32 33  1  0
 33 34  1  0
 34 35  1  0
 35 36  1  0
 36 37  1  0
 23 38  1  0
 39 38  1  1
 39 40  1  0
 40 41  1  0
 41 42  1  6
  4 43  1  0
 43 44  1  0
 44 45  2  0
 44 46  2  0
 44 47  1  0
 17  9  1  0
 39 19  1  0
 17 12  1  0
 13 41  1  6
M  END
>  <Synonyms>  (166) 
MSI-1436|TRODUSQUEMINE

>  <Research Codes>  (166) 
MSI-1436

>  <Phase>  (166) 
1

>  <Applicants>  (166) 
nan

>  <USAN Stem>  (166) 
nan

>  <USAN Year>  (166) 
2004.0

>  <USAN Stem Definition>  (166) 
nan

>  <USAN Stem Substem>  (166) 
nan

>  <First Approval>  (166) 
nan

>  <ATC Codes>  (166) 
nan

>  <Level 4 ATC Codes>  (166) 
nan

>  <Level 3 ATC Codes>  (166) 
nan

>  <Level 2 ATC Codes>  (166) 
nan

>  <Level 1 ATC Codes>  (166) 
nan

>  <Indication Class>  (166) 
nan

>  <Patent>  (166) 
nan

>  <Drug Type>  (166) 
7:Natural Product-derived

>  <Passes Rule of Five>  (166) 
False

>  <First In Class>  (166) 
False

>  <Chirality>  (166) 
Single Stereoisomer

>  <Prodrug>  (166) 
False

>  <Oral>  (166) 
False

>  <Parenteral>  (166) 
False

>  <Topical>  (166) 
False

>  <Black Box>  (166) 
False

>  <Availability Type>  (166) 
Unknown

>  <Withdrawn Year>  (166) 
nan

>  <Withdrawn Reason>  (166) 
nan

>  <Withdrawn Country>  (166) 
nan

>  <Withdrawn Class>  (166) 
nan

>  <SMILES>  (166) 
CC(C)[C@@H](CC[C@@H](C)[C@H]1CC[C@H]2[C@H]3[C@H](CC[C@@]21C)[C@@]1(C)CC[C@H](NCCCNCCCCNCCCN)C[C@@H]1C[C@H]3O)OS(=O)(=O)O

>  <InChi Key>  (166) 
WUJVPODXELZABP-FWJXURDUSA-N

$$$$
CHEMBL1829335
     RDKit          2D

 23 25  0  0  0  0  0  0  0  0999 V2000
   -0.5773   -9.4764    0.0000 C   0  0  0  0  0  0  0  0  0  0  0  0
    0.8899   -9.1645    0.0000 C   0  0  0  0  0  0  0  0  0  0  0  0
    2.0046  -10.1682    0.0000 C   0  0  0  0  0  0  0  0  0  0  0  0
    3.3037   -9.4182    0.0000 C   0  0  0  0  0  0  0  0  0  0  0  0
    2.9918   -7.9510    0.0000 C   0  0  0  0  0  0  0  0  0  0  0  0
    1.5000   -7.7942    0.0000 N   0  0  0  0  0  0  0  0  0  0  0  0
    0.7500   -6.4952    0.0000 C   0  0  0  0  0  0  0  0  0  0  0  0
    1.5000   -5.1962    0.0000 C   0  0  0  0  0  0  0  0  0  0  0  0
    0.7500   -3.8971    0.0000 C   0  0  0  0  0  0  0  0  0  0  0  0
    1.5000   -2.5981    0.0000 O   0  0  0  0  0  0  0  0  0  0  0  0
    0.7500   -1.2990    0.0000 C   0  0  0  0  0  0  0  0  0  0  0  0
    1.5000    0.0000    0.0000 C   0  0  0  0  0  0  0  0  0  0  0  0
    0.7500    1.2990    0.0000 C   0  0  0  0  0  0  0  0  0  0  0  0
   -0.7500    1.2990    0.0000 C   0  0  0  0  0  0  0  0  0  0  0  0
   -1.5000    2.5981    0.0000 C   0  0  0  0  0  0  0  0  0  0  0  0
   -0.7500    3.8971    0.0000 C   0  0  0  0  0  0  0  0  0  0  0  0
   -1.5000    5.1962    0.0000 C   0  0  0  0  0  0  0  0  0  0  0  0
   -3.0000    5.1962    0.0000 C   0  0  0  0  0  0  0  0  0  0  0  0
   -3.7500    6.4952    0.0000 O   0  0  0  0  0  0  0  0  0  0  0  0
   -3.7500    3.8971    0.0000 N   0  0  0  0  0  0  0  0  0  0  0  0
   -3.0000    2.5981    0.0000 N   0  0  0  0  0  0  0  0  0  0  0  0
   -1.5000    0.0000    0.0000 C   0  0  0  0  0  0  0  0  0  0  0  0
   -0.7500   -1.2990    0.0000 C   0  0  0  0  0  0  0  0  0  0  0  0
  2  1  1  1
  2  3  1  0
  3  4  1  0
  4  5  1  0
  5  6  1  0
  6  7  1  0
  7  8  1  0
  8  9  1  0
  9 10  1  0
 10 11  1  0
 11 12  2  0
 12 13  1  0
 13 14  2  0
 14 15  1  0
 15 16  1  0
 16 17  2  0
 17 18  1  0
 18 19  2  0
 18 20  1  0
 20 21  1  0
 14 22  1  0
 22 23  2  0
  6  2  1  0
 23 11  1  0
 21 15  2  0
M  END
>  <Synonyms>  (167) 
CEP-26401|IRDABISANT

>  <Research Codes>  (167) 
CEP-26401

>  <Phase>  (167) 
1

>  <Applicants>  (167) 
nan

>  <USAN Stem>  (167) 
'-isant'

>  <USAN Year>  (167) 
2011.0

>  <USAN Stem Definition>  (167) 
histamine H3 receptor antagonists

>  <USAN Stem Substem>  (167) 
'-isant(-isant)'

>  <First Approval>  (167) 
nan

>  <ATC Codes>  (167) 
nan

>  <Level 4 ATC Codes>  (167) 
nan

>  <Level 3 ATC Codes>  (167) 
nan

>  <Level 2 ATC Codes>  (167) 
nan

>  <Level 1 ATC Codes>  (167) 
nan

>  <Indication Class>  (167) 
nan

>  <Patent>  (167) 
nan

>  <Drug Type>  (167) 
1:Synthetic Small Molecule

>  <Passes Rule of Five>  (167) 
True

>  <First In Class>  (167) 
False

>  <Chirality>  (167) 
Single Stereoisomer

>  <Prodrug>  (167) 
False

>  <Oral>  (167) 
False

>  <Parenteral>  (167) 
False

>  <Topical>  (167) 
False

>  <Black Box>  (167) 
False

>  <Availability Type>  (167) 
Unknown

>  <Withdrawn Year>  (167) 
nan

>  <Withdrawn Reason>  (167) 
nan

>  <Withdrawn Country>  (167) 
nan

>  <Withdrawn Class>  (167) 
nan

>  <SMILES>  (167) 
C[C@@H]1CCCN1CCCOc1ccc(-c2ccc(=O)[nH]n2)cc1

>  <InChi Key>  (167) 
XUKROCVZGZNGSI-CQSZACIVSA-N

$$$$
CHEMBL170630
     RDKit          2D

 12 11  0  0  0  0  0  0  0  0999 V2000
    0.0000    0.0000    0.0000 C   0  0  0  0  0  0  0  0  0  0  0  0
    1.2990    0.7500    0.0000 S   0  0  0  0  0  0  0  0  0  0  0  0
    2.5981    1.5000    0.0000 O   0  0  0  0  0  0  0  0  0  0  0  0
    2.0490   -0.5490    0.0000 O   0  0  0  0  0  0  0  0  0  0  0  0
    0.5490    2.0490    0.0000 O   0  0  0  0  0  0  0  0  0  0  0  0
    1.2990    3.3481    0.0000 C   0  0  0  0  0  0  0  0  0  0  0  0
    0.5490    4.6471    0.0000 C   0  0  0  0  0  0  0  0  0  0  0  0
    1.2990    5.9462    0.0000 O   0  0  0  0  0  0  0  0  0  0  0  0
    0.5490    7.2452    0.0000 S   0  0  0  0  0  0  0  0  0  0  0  0
    1.8481    7.9952    0.0000 C   0  0  0  0  0  0  0  0  0  0  0  0
   -0.7500    6.4952    0.0000 O   0  0  0  0  0  0  0  0  0  0  0  0
   -0.2010    8.5442    0.0000 O   0  0  0  0  0  0  0  0  0  0  0  0
  1  2  1  0
  2  3  2  0
  2  4  2  0
  2  5  1  0
  5  6  1  0
  6  7  1  0
  7  8  1  0
  8  9  1  0
  9 10  1  0
  9 11  2  0
  9 12  2  0
M  END
>  <Synonyms>  (168) 
ETHANE DIMETHANE SULFONATE|Methanesulfonic Acid 2-Methanesulfonyloxy-Ethyl Ester

>  <Research Codes>  (168) 
nan

>  <Phase>  (168) 
1

>  <Applicants>  (168) 
nan

>  <USAN Stem>  (168) 
nan

>  <USAN Year>  (168) 
nan

>  <USAN Stem Definition>  (168) 
nan

>  <USAN Stem Substem>  (168) 
nan

>  <First Approval>  (168) 
nan

>  <ATC Codes>  (168) 
nan

>  <Level 4 ATC Codes>  (168) 
nan

>  <Level 3 ATC Codes>  (168) 
nan

>  <Level 2 ATC Codes>  (168) 
nan

>  <Level 1 ATC Codes>  (168) 
nan

>  <Indication Class>  (168) 
nan

>  <Patent>  (168) 
nan

>  <Drug Type>  (168) 
1:Synthetic Small Molecule

>  <Passes Rule of Five>  (168) 
True

>  <First In Class>  (168) 
False

>  <Chirality>  (168) 
Unknown

>  <Prodrug>  (168) 
False

>  <Oral>  (168) 
False

>  <Parenteral>  (168) 
False

>  <Topical>  (168) 
False

>  <Black Box>  (168) 
False

>  <Availability Type>  (168) 
Unknown

>  <Withdrawn Year>  (168) 
nan

>  <Withdrawn Reason>  (168) 
nan

>  <Withdrawn Country>  (168) 
nan

>  <Withdrawn Class>  (168) 
nan

>  <SMILES>  (168) 
CS(=O)(=O)OCCOS(C)(=O)=O

>  <InChi Key>  (168) 
QSQFARNGNIZGAW-UHFFFAOYSA-N

$$$$
CHEMBL4297266
     RDKit          2D

 27 27  0  0  0  0  0  0  0  0999 V2000
   10.5000   -5.1962    0.0000 C   0  0  0  0  0  0  0  0  0  0  0  0
    9.7500   -3.8971    0.0000 C   0  0  0  0  0  0  0  0  0  0  0  0
    8.2500   -3.8971    0.0000 C   0  0  0  0  0  0  0  0  0  0  0  0
    7.5000   -2.5981    0.0000 C   0  0  0  0  0  0  0  0  0  0  0  0
    6.0000   -2.5981    0.0000 C   0  0  0  0  0  0  0  0  0  0  0  0
    5.2500   -1.2990    0.0000 C   0  0  0  0  0  0  0  0  0  0  0  0
    6.0000    0.0000    0.0000 O   0  0  0  0  0  0  0  0  0  0  0  0
    3.7500   -1.2990    0.0000 C   0  0  0  0  0  0  0  0  0  0  0  0
    3.0000    0.0000    0.0000 C   0  0  0  0  0  0  0  0  0  0  0  0
    1.5000    0.0000    0.0000 C   0  0  0  0  0  0  0  0  0  0  0  0
    0.7500   -1.2990    0.0000 C   0  0  0  0  0  0  0  0  0  0  0  0
   -0.7500   -1.2990    0.0000 C   0  0  0  0  0  0  0  0  0  0  0  0
   -1.5000    0.0000    0.0000 C   0  0  0  0  0  0  0  0  0  0  0  0
   -0.7500    1.2990    0.0000 C   0  0  0  0  0  0  0  0  0  0  0  0
    0.7500    1.2990    0.0000 C   0  0  0  0  0  0  0  0  0  0  0  0
    1.5000    2.5981    0.0000 C   0  0  0  0  0  0  0  0  0  0  0  0
    0.7500    3.8971    0.0000 C   0  0  0  0  0  0  0  0  0  0  0  0
    1.5000    5.1962    0.0000 C   0  0  0  0  0  0  0  0  0  0  0  0
    3.0000    5.1962    0.0000 O   0  0  0  0  0  0  0  0  0  0  0  0
    0.7500    6.4952    0.0000 C   0  0  0  0  0  0  0  0  0  0  0  0
   -0.7500    6.4952    0.0000 O   0  0  0  0  0  0  0  0  0  0  0  0
    1.5000    7.7942    0.0000 C   0  0  0  0  0  0  0  0  0  0  0  0
    0.7500    9.0933    0.0000 C   0  0  0  0  0  0  0  0  0  0  0  0
    1.5000   10.3923    0.0000 C   0  0  0  0  0  0  0  0  0  0  0  0
    0.7500   11.6913    0.0000 C   0  0  0  0  0  0  0  0  0  0  0  0
   -0.7500   11.6913    0.0000 O   0  0  0  0  0  0  0  0  0  0  0  0
    1.5000   12.9904    0.0000 O   0  0  0  0  0  0  0  0  0  0  0  0
  1  2  1  0
  2  3  1  0
  3  4  1  0
  4  5  1  0
  5  6  1  0
  6  7  1  6
  6  8  1  0
  8  9  2  0
  9 10  1  0
 10 11  2  0
 11 12  1  0
 12 13  2  0
 13 14  1  0
 14 15  2  0
 15 16  1  0
 16 17  2  0
 17 18  1  0
 18 19  1  6
 18 20  1  0
 20 21  1  1
 20 22  1  0
 22 23  1  0
 23 24  1  0
 24 25  1  0
 25 26  2  0
 25 27  1  0
 15 10  1  0
M  END
>  <Synonyms>  (169) 
BLXA-4|BLXA4

>  <Research Codes>  (169) 
BLXA-4

>  <Phase>  (169) 
1

>  <Applicants>  (169) 
nan

>  <USAN Stem>  (169) 
nan

>  <USAN Year>  (169) 
nan

>  <USAN Stem Definition>  (169) 
nan

>  <USAN Stem Substem>  (169) 
nan

>  <First Approval>  (169) 
nan

>  <ATC Codes>  (169) 
nan

>  <Level 4 ATC Codes>  (169) 
nan

>  <Level 3 ATC Codes>  (169) 
nan

>  <Level 2 ATC Codes>  (169) 
nan

>  <Level 1 ATC Codes>  (169) 
nan

>  <Indication Class>  (169) 
nan

>  <Patent>  (169) 
nan

>  <Drug Type>  (169) 
1:Synthetic Small Molecule

>  <Passes Rule of Five>  (169) 
True

>  <First In Class>  (169) 
False

>  <Chirality>  (169) 
Single Stereoisomer

>  <Prodrug>  (169) 
False

>  <Oral>  (169) 
False

>  <Parenteral>  (169) 
False

>  <Topical>  (169) 
False

>  <Black Box>  (169) 
False

>  <Availability Type>  (169) 
Unknown

>  <Withdrawn Year>  (169) 
nan

>  <Withdrawn Reason>  (169) 
nan

>  <Withdrawn Country>  (169) 
nan

>  <Withdrawn Class>  (169) 
nan

>  <SMILES>  (169) 
CCCCC[C@@H](O)/C=C/c1ccccc1/C=C/[C@@H](O)[C@@H](O)CCCC(=O)O

>  <InChi Key>  (169) 
HEDVTGFTYROYFE-RREUNBNVSA-N

$$$$
CHEMBL4297278
     RDKit          2D

 51 54  0  0  0  0  0  0  0  0999 V2000
   12.5538   -6.8460    0.0000 C   0  0  0  0  0  0  0  0  0  0  0  0
   13.3038   -5.5470    0.0000 C   0  0  0  0  0  0  0  0  0  0  0  0
   12.5538   -4.2479    0.0000 C   0  0  0  0  0  0  0  0  0  0  0  0
   11.0538   -4.2479    0.0000 O   0  0  0  0  0  0  0  0  0  0  0  0
   13.3038   -2.9489    0.0000 C   0  0  0  0  0  0  0  0  0  0  0  0
   14.8038   -2.9489    0.0000 C   0  0  0  0  0  0  0  0  0  0  0  0
   12.5538   -1.6499    0.0000 C   0  0  0  0  0  0  0  0  0  0  0  0
   12.5538   -0.1499    0.0000 O   0  0  0  0  0  0  0  0  0  0  0  0
   11.2547   -0.8999    0.0000 C   0  0  0  0  0  0  0  0  0  0  0  0
    9.7547   -0.8999    0.0000 C   0  0  0  0  0  0  0  0  0  0  0  0
    9.0047   -2.1989    0.0000 C   0  0  0  0  0  0  0  0  0  0  0  0
    8.2547   -3.4979    0.0000 C   0  0  0  0  0  0  0  0  0  0  0  0
   10.3038   -2.9489    0.0000 O   0  0  0  0  0  0  0  0  0  0  0  0
    7.7057   -1.4489    0.0000 C   0  0  0  0  0  0  0  0  0  0  0  0
    6.4067   -2.1989    0.0000 C   0  0  0  0  0  0  0  0  0  0  0  0
    5.1076   -1.4489    0.0000 C   0  0  0  0  0  0  0  0  0  0  0  0
    3.8086   -2.1989    0.0000 C   0  0  0  0  0  0  0  0  0  0  0  0
    3.8086   -3.6989    0.0000 C   0  0  0  0  0  0  0  0  0  0  0  0
    2.5095   -1.4489    0.0000 C   0  0  0  0  0  0  0  0  0  0  0  0
    2.8978    0.0000    0.0000 O   0  0  0  0  0  0  0  0  0  0  0  0
    2.5095    1.4489    0.0000 C   0  0  0  0  0  0  0  0  0  0  0  0
    3.8086    2.1989    0.0000 O   0  0  0  0  0  0  0  0  0  0  0  0
    1.4489    2.5095    0.0000 C   0  0  0  0  0  0  0  0  0  0  0  0
    0.0000    2.8978    0.0000 C   0  0  0  0  0  0  0  0  0  0  0  0
    0.0000    4.3978    0.0000 O   0  0  0  0  0  0  0  0  0  0  0  0
   -1.4489    2.5095    0.0000 C   0  0  0  0  0  0  0  0  0  0  0  0
   -2.5095    1.4489    0.0000 C   0  0  0  0  0  0  0  0  0  0  0  0
   -2.8978    0.0000    0.0000 C   0  0  0  0  0  0  0  0  0  0  0  0
   -4.1265   -0.8604    0.0000 C   0  0  0  0  0  0  0  0  0  0  0  0
   -4.1265    0.8604    0.0000 O   0  0  0  0  0  0  0  0  0  0  0  0
   -2.5095   -1.4489    0.0000 C   0  0  0  0  0  0  0  0  0  0  0  0
   -3.8086   -2.1989    0.0000 O   0  0  0  0  0  0  0  0  0  0  0  0
   -5.1076   -1.4489    0.0000 C   0  0  0  0  0  0  0  0  0  0  0  0
   -5.1076    0.0511    0.0000 O   0  0  0  0  0  0  0  0  0  0  0  0
   -6.4067   -2.1989    0.0000 N   0  0  0  0  0  0  0  0  0  0  0  0
   -7.7057   -1.4489    0.0000 C   0  0  0  0  0  0  0  0  0  0  0  0
   -9.0047   -2.1989    0.0000 C   0  0  0  0  0  0  0  0  0  0  0  0
   -9.0047   -3.6989    0.0000 N   0  0  0  0  0  0  0  0  0  0  0  0
  -10.3038   -4.4489    0.0000 C   0  0  0  0  0  0  0  0  0  0  0  0
  -10.1917   -5.9447    0.0000 C   0  0  0  0  0  0  0  0  0  0  0  0
  -11.2913   -6.9650    0.0000 C   0  0  0  0  0  0  0  0  0  0  0  0
  -12.7745   -6.7414    0.0000 C   0  0  0  0  0  0  0  0  0  0  0  0
  -13.5245   -5.4424    0.0000 C   0  0  0  0  0  0  0  0  0  0  0  0
  -12.9765   -4.0460    0.0000 C   0  0  0  0  0  0  0  0  0  0  0  0
  -11.5431   -3.6039    0.0000 C   0  0  0  0  0  0  0  0  0  0  0  0
   -7.7057   -4.4489    0.0000 C   0  0  0  0  0  0  0  0  0  0  0  0
   -6.4067   -3.6989    0.0000 C   0  0  0  0  0  0  0  0  0  0  0  0
   -1.4489   -2.5095    0.0000 C   0  0  0  0  0  0  0  0  0  0  0  0
   -0.0000   -2.8978    0.0000 C   0  0  0  0  0  0  0  0  0  0  0  0
    1.4489   -2.5095    0.0000 C   0  0  0  0  0  0  0  0  0  0  0  0
    2.1989   -3.8086    0.0000 C   0  0  0  0  0  0  0  0  0  0  0  0
  1  2  1  0
  2  3  1  0
  3  4  1  6
  3  5  1  0
  5  6  1  6
  5  7  1  0
  7  8  1  6
  8  9  1  0
  9 10  1  1
 10 11  1  0
 11 12  1  6
 11 13  1  0
 11 14  1  0
 14 15  2  0
 15 16  1  0
 16 17  2  0
 17 18  1  0
 19 17  1  6
 19 20  1  0
 20 21  1  0
 21 22  2  0
 21 23  1  0
 23 24  1  0
 24 25  1  1
 24 26  1  0
 26 27  1  0
 27 28  1  0
 28 29  1  1
 28 30  1  0
 28 31  1  0
 31 32  1  6
 32 33  1  0
 33 34  2  0
 33 35  1  0
 35 36  1  0
 36 37  1  0
 37 38  1  0
 38 39  1  0
 39 40  1  0
 40 41  1  0
 41 42  1  0
 42 43  1  0
 43 44  1  0
 44 45  1  0
 38 46  1  0
 46 47  1  0
 31 48  1  0
 48 49  2  0
 49 50  1  0
 50 51  1  1
  9  7  1  0
 50 19  1  0
 47 35  1  0
 45 39  1  0
M  END
>  <Synonyms>  (170) 
E7107

>  <Research Codes>  (170) 
nan

>  <Phase>  (170) 
1

>  <Applicants>  (170) 
nan

>  <USAN Stem>  (170) 
nan

>  <USAN Year>  (170) 
nan

>  <USAN Stem Definition>  (170) 
nan

>  <USAN Stem Substem>  (170) 
nan

>  <First Approval>  (170) 
nan

>  <ATC Codes>  (170) 
nan

>  <Level 4 ATC Codes>  (170) 
nan

>  <Level 3 ATC Codes>  (170) 
nan

>  <Level 2 ATC Codes>  (170) 
nan

>  <Level 1 ATC Codes>  (170) 
nan

>  <Indication Class>  (170) 
nan

>  <Patent>  (170) 
nan

>  <Drug Type>  (170) 
7:Natural Product-derived

>  <Passes Rule of Five>  (170) 
False

>  <First In Class>  (170) 
False

>  <Chirality>  (170) 
Single Stereoisomer

>  <Prodrug>  (170) 
False

>  <Oral>  (170) 
False

>  <Parenteral>  (170) 
False

>  <Topical>  (170) 
False

>  <Black Box>  (170) 
False

>  <Availability Type>  (170) 
Unknown

>  <Withdrawn Year>  (170) 
nan

>  <Withdrawn Reason>  (170) 
nan

>  <Withdrawn Country>  (170) 
nan

>  <Withdrawn Class>  (170) 
nan

>  <SMILES>  (170) 
CC[C@H](O)[C@@H](C)[C@H]1O[C@@H]1C[C@@](C)(O)/C=C/C=C(\C)[C@H]1OC(=O)C[C@H](O)CC[C@@](C)(O)[C@@H](OC(=O)N2CCN(C3CCCCCC3)CC2)/C=C/[C@@H]1C

>  <InChi Key>  (170) 
MNOMBFWMICHMKG-MGYWSNOQSA-N

$$$$
CHEMBL4297367
     RDKit          2D

 35 39  0  0  0  0  0  0  0  0999 V2000
   -6.7500   -6.4952    0.0000 C   0  0  0  0  0  0  0  0  0  0  0  0
   -6.0000   -5.1962    0.0000 C   0  0  0  0  0  0  0  0  0  0  0  0
   -5.2500   -3.8971    0.0000 C   0  0  0  0  0  0  0  0  0  0  0  0
   -6.0000   -2.5981    0.0000 C   0  0  0  0  0  0  0  0  0  0  0  0
   -5.2500   -1.2990    0.0000 C   0  0  0  0  0  0  0  0  0  0  0  0
   -3.7500   -1.2990    0.0000 C   0  0  0  0  0  0  0  0  0  0  0  0
   -3.0000   -2.5981    0.0000 C   0  0  0  0  0  0  0  0  0  0  0  0
   -1.5000   -2.5981    0.0000 C   0  0  0  0  0  0  0  0  0  0  0  0
   -0.7500   -3.8971    0.0000 C   0  0  0  0  0  0  0  0  0  0  0  0
    0.7500   -3.8971    0.0000 C   0  0  0  0  0  0  0  0  0  0  0  0
    1.5000   -5.1962    0.0000 O   0  0  0  0  0  0  0  0  0  0  0  0
    1.5000   -2.5981    0.0000 N   0  0  0  0  0  0  0  0  0  0  0  0
    3.0000   -2.5981    0.0000 C   0  0  0  0  0  0  0  0  0  0  0  0
    0.7500   -1.2990    0.0000 C   0  0  0  0  0  0  0  0  0  0  0  0
    1.5000    0.0000    0.0000 C   0  0  0  0  0  0  0  0  0  0  0  0
    0.7500    1.2990    0.0000 C   0  0  0  0  0  0  0  0  0  0  0  0
   -0.7500    1.2990    0.0000 C   0  0  0  0  0  0  0  0  0  0  0  0
   -1.5000    2.5981    0.0000 C   0  0  0  0  0  0  0  0  0  0  0  0
   -0.2010    3.3481    0.0000 O   0  0  0  0  0  0  0  0  0  0  0  0
   -2.2500    3.8971    0.0000 C   0  0  0  0  0  0  0  0  0  0  0  0
   -1.5000    5.1962    0.0000 C   0  0  0  0  0  0  0  0  0  0  0  0
   -2.2500    6.4952    0.0000 C   0  0  0  0  0  0  0  0  0  0  0  0
   -3.7500    6.4952    0.0000 C   0  0  0  0  0  0  0  0  0  0  0  0
   -4.5000    7.7942    0.0000 Cl  0  0  0  0  0  0  0  0  0  0  0  0
   -4.5000    5.1962    0.0000 C   0  0  0  0  0  0  0  0  0  0  0  0
   -3.7500    3.8971    0.0000 C   0  0  0  0  0  0  0  0  0  0  0  0
   -2.7990    1.8481    0.0000 C   0  0  0  0  0  0  0  0  0  0  0  0
   -2.9558    0.3563    0.0000 C   0  0  0  0  0  0  0  0  0  0  0  0
   -4.4231    0.0444    0.0000 N   0  0  0  0  0  0  0  0  0  0  0  0
   -5.1731    1.3435    0.0000 C   0  0  0  0  0  0  0  0  0  0  0  0
   -4.1694    2.4582    0.0000 N   0  0  0  0  0  0  0  0  0  0  0  0
   -4.4812    3.9254    0.0000 C   0  0  0  0  0  0  0  0  0  0  0  0
   -1.5000    0.0000    0.0000 C   0  0  0  0  0  0  0  0  0  0  0  0
   -0.7500   -1.2990    0.0000 C   0  0  0  0  0  0  0  0  0  0  0  0
   -3.7500   -3.8971    0.0000 C   0  0  0  0  0  0  0  0  0  0  0  0
  1  2  3  0
  2  3  1  0
  3  4  2  0
  4  5  1  0
  5  6  2  0
  6  7  1  0
  7  8  1  0
  8  9  2  0
  9 10  1  0
 10 11  2  0
 10 12  1  0
 12 13  1  0
 12 14  1  0
 14 15  2  0
 15 16  1  0
 16 17  2  0
 17 18  1  0
 18 19  1  6
 18 20  1  0
 20 21  2  0
 21 22  1  0
 22 23  2  0
 23 24  1  0
 23 25  1  0
 25 26  2  0
 18 27  1  0
 27 28  2  0
 28 29  1  0
 29 30  2  0
 30 31  1  0
 31 32  1  0
 17 33  1  0
 33 34  2  0
  7 35  2  0
 35  3  1  0
 34  8  1  0
 34 14  1  0
 26 20  1  0
 31 27  1  0
M  END
>  <Synonyms>  (171) 
CP-609,754|CP-609754|LNK-754|OSI-754

>  <Research Codes>  (171) 
CP-609,754|LNK-754|OSI-754

>  <Phase>  (171) 
1

>  <Applicants>  (171) 
nan

>  <USAN Stem>  (171) 
nan

>  <USAN Year>  (171) 
nan

>  <USAN Stem Definition>  (171) 
nan

>  <USAN Stem Substem>  (171) 
nan

>  <First Approval>  (171) 
nan

>  <ATC Codes>  (171) 
nan

>  <Level 4 ATC Codes>  (171) 
nan

>  <Level 3 ATC Codes>  (171) 
nan

>  <Level 2 ATC Codes>  (171) 
nan

>  <Level 1 ATC Codes>  (171) 
nan

>  <Indication Class>  (171) 
nan

>  <Patent>  (171) 
nan

>  <Drug Type>  (171) 
1:Synthetic Small Molecule

>  <Passes Rule of Five>  (171) 
True

>  <First In Class>  (171) 
False

>  <Chirality>  (171) 
Single Stereoisomer

>  <Prodrug>  (171) 
False

>  <Oral>  (171) 
False

>  <Parenteral>  (171) 
False

>  <Topical>  (171) 
False

>  <Black Box>  (171) 
False

>  <Availability Type>  (171) 
Unknown

>  <Withdrawn Year>  (171) 
nan

>  <Withdrawn Reason>  (171) 
nan

>  <Withdrawn Country>  (171) 
nan

>  <Withdrawn Class>  (171) 
nan

>  <SMILES>  (171) 
C#Cc1cccc(-c2cc(=O)n(C)c3ccc([C@](O)(c4ccc(Cl)cc4)c4cncn4C)cc23)c1

>  <InChi Key>  (171) 
JAHDAIPFBPPQHQ-GDLZYMKVSA-N

$$$$
CHEMBL4297299
     RDKit          2D

 30 33  0  0  0  0  0  0  0  0999 V2000
   -0.7500   -3.8971    0.0000 O   0  0  0  0  0  0  0  0  0  0  0  0
    0.7500   -3.8971    0.0000 C   0  0  0  0  0  0  0  0  0  0  0  0
    1.5000   -2.5981    0.0000 C   0  0  0  0  0  0  0  0  0  0  0  0
    0.7500   -1.2990    0.0000 C   0  0  0  0  0  0  0  0  0  0  0  0
    1.5000    0.0000    0.0000 C   0  0  0  0  0  0  0  0  0  0  0  0
    0.7500    1.2990    0.0000 C   0  0  0  0  0  0  0  0  0  0  0  0
   -0.7500    1.2990    0.0000 C   0  0  0  0  0  0  0  0  0  0  0  0
   -1.5000    2.5981    0.0000 C   0  0  0  0  0  0  0  0  0  0  0  0
   -0.7500    3.8971    0.0000 C   0  0  0  0  0  0  0  0  0  0  0  0
   -1.5000    5.1962    0.0000 C   0  0  0  0  0  0  0  0  0  0  0  0
   -3.0000    5.1962    0.0000 C   0  0  0  0  0  0  0  0  0  0  0  0
   -3.7500    6.4952    0.0000 N   0  0  0  0  0  0  0  0  0  0  0  0
   -3.0000    7.7942    0.0000 C   0  0  0  0  0  0  0  0  0  0  0  0
   -3.7500    9.0933    0.0000 C   0  0  0  0  0  0  0  0  0  0  0  0
   -5.2500    9.0933    0.0000 O   0  0  0  0  0  0  0  0  0  0  0  0
   -6.0000    7.7942    0.0000 C   0  0  0  0  0  0  0  0  0  0  0  0
   -5.2500    6.4952    0.0000 C   0  0  0  0  0  0  0  0  0  0  0  0
   -3.7500    3.8971    0.0000 C   0  0  0  0  0  0  0  0  0  0  0  0
   -3.0000    2.5981    0.0000 C   0  0  0  0  0  0  0  0  0  0  0  0
   -1.5000    0.0000    0.0000 C   0  0  0  0  0  0  0  0  0  0  0  0
   -0.7500   -1.2990    0.0000 N   0  0  0  0  0  0  0  0  0  0  0  0
    1.5000   -5.1962    0.0000 N   0  0  0  0  0  0  0  0  0  0  0  0
    0.7500   -6.4952    0.0000 C   0  0  0  0  0  0  0  0  0  0  0  0
    1.5000   -7.7942    0.0000 C   0  0  0  0  0  0  0  0  0  0  0  0
    0.7500   -9.0933    0.0000 C   0  0  0  0  0  0  0  0  0  0  0  0
    1.5000  -10.3923    0.0000 C   0  0  0  0  0  0  0  0  0  0  0  0
    3.0000  -10.3923    0.0000 C   0  0  0  0  0  0  0  0  0  0  0  0
    3.7500   -9.0933    0.0000 C   0  0  0  0  0  0  0  0  0  0  0  0
    5.2500   -9.0933    0.0000 F   0  0  0  0  0  0  0  0  0  0  0  0
    3.0000   -7.7942    0.0000 C   0  0  0  0  0  0  0  0  0  0  0  0
  1  2  2  0
  2  3  1  0
  3  4  1  0
  4  5  2  0
  5  6  1  0
  6  7  2  0
  7  8  1  0
  8  9  2  0
  9 10  1  0
 10 11  2  0
 11 12  1  0
 12 13  1  0
 13 14  1  0
 14 15  1  0
 15 16  1  0
 16 17  1  0
 11 18  1  0
 18 19  2  0
  7 20  1  0
 20 21  2  0
  2 22  1  0
 22 23  1  0
 23 24  1  0
 24 25  2  0
 25 26  1  0
 26 27  2  0
 27 28  1  0
 28 29  1  0
 28 30  2  0
 21  4  1  0
 30 24  1  0
 19  8  1  0
 17 12  1  0
M  END
>  <Synonyms>  (172) 
KX-02|KX-2361|KX2-361

>  <Research Codes>  (172) 
KX-02|KX-2361

>  <Phase>  (172) 
1

>  <Applicants>  (172) 
nan

>  <USAN Stem>  (172) 
nan

>  <USAN Year>  (172) 
nan

>  <USAN Stem Definition>  (172) 
nan

>  <USAN Stem Substem>  (172) 
nan

>  <First Approval>  (172) 
nan

>  <ATC Codes>  (172) 
nan

>  <Level 4 ATC Codes>  (172) 
nan

>  <Level 3 ATC Codes>  (172) 
nan

>  <Level 2 ATC Codes>  (172) 
nan

>  <Level 1 ATC Codes>  (172) 
nan

>  <Indication Class>  (172) 
nan

>  <Patent>  (172) 
nan

>  <Drug Type>  (172) 
1:Synthetic Small Molecule

>  <Passes Rule of Five>  (172) 
True

>  <First In Class>  (172) 
False

>  <Chirality>  (172) 
Achiral Molecule

>  <Prodrug>  (172) 
False

>  <Oral>  (172) 
False

>  <Parenteral>  (172) 
False

>  <Topical>  (172) 
False

>  <Black Box>  (172) 
False

>  <Availability Type>  (172) 
Unknown

>  <Withdrawn Year>  (172) 
nan

>  <Withdrawn Reason>  (172) 
nan

>  <Withdrawn Country>  (172) 
nan

>  <Withdrawn Class>  (172) 
nan

>  <SMILES>  (172) 
O=C(Cc1ccc(-c2ccc(N3CCOCC3)cc2)cn1)NCc1cccc(F)c1

>  <InChi Key>  (172) 
CMKKPJNMYLOUCE-UHFFFAOYSA-N

$$$$
CHEMBL4297376
     RDKit          2D

 24 26  0  0  0  0  0  0  0  0999 V2000
   -3.5736    1.2902    0.0000 C   0  0  0  0  0  0  0  0  0  0  0  0
   -2.1470    1.7537    0.0000 C   0  0  0  0  0  0  0  0  0  0  0  0
   -1.8351    3.2209    0.0000 C   0  0  0  0  0  0  0  0  0  0  0  0
   -0.4086    3.6844    0.0000 C   0  0  0  0  0  0  0  0  0  0  0  0
    0.7062    2.6807    0.0000 C   0  0  0  0  0  0  0  0  0  0  0  0
    2.1328    3.1443    0.0000 N   0  0  0  0  0  0  0  0  0  0  0  0
    2.4446    4.6115    0.0000 S   0  0  0  0  0  0  0  0  0  0  0  0
    0.9774    4.9234    0.0000 O   0  0  0  0  0  0  0  0  0  0  0  0
    3.9118    4.2996    0.0000 O   0  0  0  0  0  0  0  0  0  0  0  0
    2.7565    6.0787    0.0000 C   0  0  0  0  0  0  0  0  0  0  0  0
    4.1831    6.5422    0.0000 C   0  0  0  0  0  0  0  0  0  0  0  0
    4.4949    8.0095    0.0000 C   0  0  0  0  0  0  0  0  0  0  0  0
    3.3802    9.0132    0.0000 C   0  0  0  0  0  0  0  0  0  0  0  0
    1.9536    8.5496    0.0000 C   0  0  0  0  0  0  0  0  0  0  0  0
    0.8389    9.5533    0.0000 C   0  0  0  0  0  0  0  0  0  0  0  0
   -0.2758   10.5570    0.0000 N   0  0  0  0  0  0  0  0  0  0  0  0
    1.6418    7.0824    0.0000 C   0  0  0  0  0  0  0  0  0  0  0  0
    0.3943    1.2135    0.0000 C   0  0  0  0  0  0  0  0  0  0  0  0
    1.2760    0.0000    0.0000 N   0  0  0  0  0  0  0  0  0  0  0  0
    0.3943   -1.2135    0.0000 C   0  0  0  0  0  0  0  0  0  0  0  0
   -1.0323   -0.7500    0.0000 C   0  0  0  0  0  0  0  0  0  0  0  0
   -2.2458   -1.6317    0.0000 C   0  0  0  0  0  0  0  0  0  0  0  0
   -3.4593   -2.5134    0.0000 N   0  0  0  0  0  0  0  0  0  0  0  0
   -1.0323    0.7500    0.0000 C   0  0  0  0  0  0  0  0  0  0  0  0
  1  2  1  0
  2  3  2  0
  3  4  1  0
  4  5  2  0
  5  6  1  0
  6  7  1  0
  7  8  2  0
  7  9  2  0
  7 10  1  0
 10 11  2  0
 11 12  1  0
 12 13  2  0
 13 14  1  0
 14 15  1  0
 15 16  3  0
 14 17  2  0
  5 18  1  0
 18 19  1  0
 19 20  1  0
 20 21  2  0
 21 22  1  0
 22 23  3  0
 21 24  1  0
 24  2  1  0
 17 10  1  0
 24 18  2  0
M  END
>  <Synonyms>  (173) 
E-7820|E7820|ER-68203-00

>  <Research Codes>  (173) 
E7820|ER-68203-00

>  <Phase>  (173) 
1

>  <Applicants>  (173) 
nan

>  <USAN Stem>  (173) 
nan

>  <USAN Year>  (173) 
nan

>  <USAN Stem Definition>  (173) 
nan

>  <USAN Stem Substem>  (173) 
nan

>  <First Approval>  (173) 
nan

>  <ATC Codes>  (173) 
nan

>  <Level 4 ATC Codes>  (173) 
nan

>  <Level 3 ATC Codes>  (173) 
nan

>  <Level 2 ATC Codes>  (173) 
nan

>  <Level 1 ATC Codes>  (173) 
nan

>  <Indication Class>  (173) 
nan

>  <Patent>  (173) 
nan

>  <Drug Type>  (173) 
1:Synthetic Small Molecule

>  <Passes Rule of Five>  (173) 
True

>  <First In Class>  (173) 
False

>  <Chirality>  (173) 
Achiral Molecule

>  <Prodrug>  (173) 
False

>  <Oral>  (173) 
False

>  <Parenteral>  (173) 
False

>  <Topical>  (173) 
False

>  <Black Box>  (173) 
False

>  <Availability Type>  (173) 
Unknown

>  <Withdrawn Year>  (173) 
nan

>  <Withdrawn Reason>  (173) 
nan

>  <Withdrawn Country>  (173) 
nan

>  <Withdrawn Class>  (173) 
nan

>  <SMILES>  (173) 
Cc1ccc(NS(=O)(=O)c2cccc(C#N)c2)c2[nH]cc(C#N)c12

>  <InChi Key>  (173) 
LWGUASZLXHYWIV-UHFFFAOYSA-N

$$$$
CHEMBL4297343
     RDKit          2D

 21 20  0  0  0  0  0  0  0  0999 V2000
    0.0000    0.0000    0.0000 C   0  0  0  0  0  0  0  0  0  0  0  0
    1.2990    0.7500    0.0000 C   0  0  0  0  0  0  0  0  0  0  0  0
    2.5981   -0.0000    0.0000 C   0  0  0  0  0  0  0  0  0  0  0  0
    3.8971    0.7500    0.0000 C   0  0  0  0  0  0  0  0  0  0  0  0
    5.1962   -0.0000    0.0000 C   0  0  0  0  0  0  0  0  0  0  0  0
    6.4952    0.7500    0.0000 C   0  0  0  0  0  0  0  0  0  0  0  0
    7.7942   -0.0000    0.0000 C   0  0  0  0  0  0  0  0  0  0  0  0
    9.0933    0.7500    0.0000 C   0  0  0  0  0  0  0  0  0  0  0  0
   10.3923   -0.0000    0.0000 C   0  0  0  0  0  0  0  0  0  0  0  0
   11.6913    0.7500    0.0000 C   0  0  0  0  0  0  0  0  0  0  0  0
   12.9904   -0.0000    0.0000 C   0  0  0  0  0  0  0  0  0  0  0  0
   14.2894    0.7500    0.0000 C   0  0  0  0  0  0  0  0  0  0  0  0
   15.5885   -0.0000    0.0000 C   0  0  0  0  0  0  0  0  0  0  0  0
   16.8875    0.7500    0.0000 C   0  0  0  0  0  0  0  0  0  0  0  0
   18.1865   -0.0000    0.0000 C   0  0  0  0  0  0  0  0  0  0  0  0
   19.4856    0.7500    0.0000 C   0  0  0  0  0  0  0  0  0  0  0  0
   20.7846   -0.0000    0.0000 C   0  0  0  0  0  0  0  0  0  0  0  0
   20.7846   -1.5000    0.0000 O   0  0  0  0  0  0  0  0  0  0  0  0
   22.0836    0.7500    0.0000 C   0  0  0  0  0  0  0  0  0  0  0  0
   23.3827   -0.0000    0.0000 O   0  0  0  0  0  0  0  0  0  0  0  0
   22.0836    2.2500    0.0000 O   0  0  0  0  0  0  0  0  0  0  0  0
  1  2  1  0
  2  3  1  0
  3  4  1  0
  4  5  1  0
  5  6  1  0
  6  7  2  3
  7  8  1  0
  8  9  1  0
  9 10  2  3
 10 11  1  0
 11 12  1  0
 12 13  1  0
 13 14  1  0
 14 15  1  0
 15 16  1  0
 16 17  1  0
 17 18  2  0
 17 19  1  0
 19 20  1  0
 19 21  1  0
M  END
>  <Synonyms>  (174) 
ABTL-0812|ABTL0812

>  <Research Codes>  (174) 
ABTL0812

>  <Phase>  (174) 
1

>  <Applicants>  (174) 
nan

>  <USAN Stem>  (174) 
nan

>  <USAN Year>  (174) 
nan

>  <USAN Stem Definition>  (174) 
nan

>  <USAN Stem Substem>  (174) 
nan

>  <First Approval>  (174) 
nan

>  <ATC Codes>  (174) 
nan

>  <Level 4 ATC Codes>  (174) 
nan

>  <Level 3 ATC Codes>  (174) 
nan

>  <Level 2 ATC Codes>  (174) 
nan

>  <Level 1 ATC Codes>  (174) 
nan

>  <Indication Class>  (174) 
nan

>  <Patent>  (174) 
nan

>  <Drug Type>  (174) 
1:Synthetic Small Molecule

>  <Passes Rule of Five>  (174) 
True

>  <First In Class>  (174) 
False

>  <Chirality>  (174) 
Racemic Mixture

>  <Prodrug>  (174) 
False

>  <Oral>  (174) 
False

>  <Parenteral>  (174) 
False

>  <Topical>  (174) 
False

>  <Black Box>  (174) 
False

>  <Availability Type>  (174) 
Unknown

>  <Withdrawn Year>  (174) 
nan

>  <Withdrawn Reason>  (174) 
nan

>  <Withdrawn Country>  (174) 
nan

>  <Withdrawn Class>  (174) 
nan

>  <SMILES>  (174) 
CCCCCC=CCC=CCCCCCCC(O)C(=O)O

>  <InChi Key>  (174) 
CVISIHSXUDOQFM-UHFFFAOYSA-N

$$$$
CHEMBL4297354
     RDKit          2D

 27 29  0  0  0  0  0  0  0  0999 V2000
    3.0000    0.0000    0.0000 C   0  0  0  0  0  0  0  0  0  0  0  0
    1.5000    0.0000    0.0000 C   0  0  0  0  0  0  0  0  0  0  0  0
    0.7500   -1.2990    0.0000 N   0  0  0  0  0  0  0  0  0  0  0  0
   -0.7500   -1.2990    0.0000 C   0  0  0  0  0  0  0  0  0  0  0  0
   -1.5000   -2.5981    0.0000 C   0  0  0  0  0  0  0  0  0  0  0  0
   -1.5000    0.0000    0.0000 C   0  0  0  0  0  0  0  0  0  0  0  0
   -3.0000    0.0000    0.0000 C   0  0  0  0  0  0  0  0  0  0  0  0
   -3.7500    1.2990    0.0000 C   0  0  0  0  0  0  0  0  0  0  0  0
   -5.2500    1.2990    0.0000 C   0  0  0  0  0  0  0  0  0  0  0  0
   -6.0000    0.0000    0.0000 C   0  0  0  0  0  0  0  0  0  0  0  0
   -7.5000    0.0000    0.0000 C   0  0  0  0  0  0  0  0  0  0  0  0
   -8.2500    1.2990    0.0000 C   0  0  0  0  0  0  0  0  0  0  0  0
   -9.7500    1.2990    0.0000 C   0  0  0  0  0  0  0  0  0  0  0  0
  -10.5000   -0.0000    0.0000 C   0  0  0  0  0  0  0  0  0  0  0  0
  -12.0000   -0.0000    0.0000 C   0  0  0  0  0  0  0  0  0  0  0  0
  -12.7500    1.2990    0.0000 C   0  0  0  0  0  0  0  0  0  0  0  0
  -14.2500    1.2990    0.0000 O   0  0  0  0  0  0  0  0  0  0  0  0
  -12.0000    2.5981    0.0000 O   0  0  0  0  0  0  0  0  0  0  0  0
   -9.7500   -1.2990    0.0000 C   0  0  0  0  0  0  0  0  0  0  0  0
   -8.2500   -1.2990    0.0000 C   0  0  0  0  0  0  0  0  0  0  0  0
   -5.2500   -1.2990    0.0000 C   0  0  0  0  0  0  0  0  0  0  0  0
   -3.7500   -1.2990    0.0000 C   0  0  0  0  0  0  0  0  0  0  0  0
   -0.7500    1.2990    0.0000 N   0  0  0  0  0  0  0  0  0  0  0  0
    0.7500    1.2990    0.0000 C   0  0  0  0  0  0  0  0  0  0  0  0
    1.5000    2.5981    0.0000 C   0  0  0  0  0  0  0  0  0  0  0  0
    0.7500    3.8971    0.0000 N   0  0  0  0  0  0  0  0  0  0  0  0
    3.0000    2.5981    0.0000 O   0  0  0  0  0  0  0  0  0  0  0  0
  1  2  1  0
  2  3  2  0
  3  4  1  0
  4  5  1  0
  4  6  2  0
  6  7  1  0
  7  8  2  0
  8  9  1  0
  9 10  2  0
 10 11  1  0
 11 12  1  0
 12 13  1  0
 13 14  1  0
 14 15  1  0
 15 16  1  0
 16 17  2  0
 16 18  1  0
 14 19  1  0
 19 20  1  0
 10 21  1  0
 21 22  2  0
  6 23  1  0
 23 24  2  0
 24 25  1  0
 25 26  1  0
 25 27  2  0
 24  2  1  0
 22  7  1  0
 20 11  1  0
M  END
>  <Synonyms>  (175) 
AZD 7687|AZD-7687|AZD7687

>  <Research Codes>  (175) 
AZD7687

>  <Phase>  (175) 
1

>  <Applicants>  (175) 
nan

>  <USAN Stem>  (175) 
nan

>  <USAN Year>  (175) 
nan

>  <USAN Stem Definition>  (175) 
nan

>  <USAN Stem Substem>  (175) 
nan

>  <First Approval>  (175) 
nan

>  <ATC Codes>  (175) 
nan

>  <Level 4 ATC Codes>  (175) 
nan

>  <Level 3 ATC Codes>  (175) 
nan

>  <Level 2 ATC Codes>  (175) 
nan

>  <Level 1 ATC Codes>  (175) 
nan

>  <Indication Class>  (175) 
nan

>  <Patent>  (175) 
nan

>  <Drug Type>  (175) 
1:Synthetic Small Molecule

>  <Passes Rule of Five>  (175) 
True

>  <First In Class>  (175) 
False

>  <Chirality>  (175) 
Racemic Mixture

>  <Prodrug>  (175) 
False

>  <Oral>  (175) 
False

>  <Parenteral>  (175) 
False

>  <Topical>  (175) 
False

>  <Black Box>  (175) 
False

>  <Availability Type>  (175) 
Unknown

>  <Withdrawn Year>  (175) 
nan

>  <Withdrawn Reason>  (175) 
nan

>  <Withdrawn Country>  (175) 
nan

>  <Withdrawn Class>  (175) 
nan

>  <SMILES>  (175) 
Cc1nc(C)c(-c2ccc(C3CCC(CC(=O)O)CC3)cc2)nc1C(N)=O

>  <InChi Key>  (175) 
YXFNPRHZMOGREC-UHFFFAOYSA-N

$$$$
CHEMBL4297386
     RDKit          2D

 39 42  0  0  0  0  0  0  0  0999 V2000
   -5.8515    6.6945    0.0000 C   0  0  0  0  0  0  0  0  0  0  0  0
   -6.1634    5.2273    0.0000 O   0  0  0  0  0  0  0  0  0  0  0  0
   -5.0487    4.2236    0.0000 C   0  0  0  0  0  0  0  0  0  0  0  0
   -5.3605    2.7564    0.0000 C   0  0  0  0  0  0  0  0  0  0  0  0
   -4.2458    1.7527    0.0000 O   0  0  0  0  0  0  0  0  0  0  0  0
   -4.5577    0.2855    0.0000 C   0  0  0  0  0  0  0  0  0  0  0  0
   -3.4430   -0.7182    0.0000 C   0  0  0  0  0  0  0  0  0  0  0  0
   -3.7548   -2.1855    0.0000 C   0  0  0  0  0  0  0  0  0  0  0  0
   -2.6401   -3.1891    0.0000 C   0  0  0  0  0  0  0  0  0  0  0  0
   -1.2135   -2.7256    0.0000 N   0  0  0  0  0  0  0  0  0  0  0  0
   -0.0000   -3.6073    0.0000 C   0  0  0  0  0  0  0  0  0  0  0  0
    0.0000   -5.1073    0.0000 C   0  0  0  0  0  0  0  0  0  0  0  0
   -1.2990   -5.8573    0.0000 O   0  0  0  0  0  0  0  0  0  0  0  0
    1.2990   -5.8573    0.0000 O   0  0  0  0  0  0  0  0  0  0  0  0
    1.2135   -2.7256    0.0000 C   0  0  0  0  0  0  0  0  0  0  0  0
    2.6401   -3.1891    0.0000 C   0  0  0  0  0  0  0  0  0  0  0  0
    2.9520   -4.6564    0.0000 C   0  0  0  0  0  0  0  0  0  0  0  0
    4.3786   -5.1199    0.0000 C   0  0  0  0  0  0  0  0  0  0  0  0
    5.4933   -4.1162    0.0000 C   0  0  0  0  0  0  0  0  0  0  0  0
    6.9199   -4.5797    0.0000 C   0  0  0  0  0  0  0  0  0  0  0  0
    6.4563   -6.0063    0.0000 C   0  0  0  0  0  0  0  0  0  0  0  0
    7.3834   -3.1531    0.0000 C   0  0  0  0  0  0  0  0  0  0  0  0
    8.3464   -5.0433    0.0000 C   0  0  0  0  0  0  0  0  0  0  0  0
    5.1814   -2.6490    0.0000 C   0  0  0  0  0  0  0  0  0  0  0  0
    3.7548   -2.1855    0.0000 C   0  0  0  0  0  0  0  0  0  0  0  0
    0.7500   -1.2990    0.0000 C   0  0  0  0  0  0  0  0  0  0  0  0
    1.5000    0.0000    0.0000 C   0  0  0  0  0  0  0  0  0  0  0  0
    0.7500    1.2990    0.0000 C   0  0  0  0  0  0  0  0  0  0  0  0
   -0.7500    1.2990    0.0000 C   0  0  0  0  0  0  0  0  0  0  0  0
   -1.5000    0.0000    0.0000 C   0  0  0  0  0  0  0  0  0  0  0  0
   -0.7500   -1.2990    0.0000 C   0  0  0  0  0  0  0  0  0  0  0  0
   -5.1814   -2.6490    0.0000 C   0  0  0  0  0  0  0  0  0  0  0  0
   -6.2961   -1.6453    0.0000 C   0  0  0  0  0  0  0  0  0  0  0  0
   -7.7227   -2.1088    0.0000 O   0  0  0  0  0  0  0  0  0  0  0  0
   -8.8374   -1.1051    0.0000 C   0  0  0  0  0  0  0  0  0  0  0  0
  -10.2640   -1.5686    0.0000 C   0  0  0  0  0  0  0  0  0  0  0  0
  -11.3787   -0.5649    0.0000 O   0  0  0  0  0  0  0  0  0  0  0  0
  -12.8053   -1.0285    0.0000 C   0  0  0  0  0  0  0  0  0  0  0  0
   -5.9843   -0.1781    0.0000 C   0  0  0  0  0  0  0  0  0  0  0  0
  1  2  1  0
  2  3  1  0
  3  4  1  0
  4  5  1  0
  5  6  1  0
  6  7  2  0
  7  8  1  0
  8  9  1  0
  9 10  1  0
 10 11  1  0
 11 12  1  0
 12 13  2  0
 12 14  1  0
 11 15  2  0
 15 16  1  0
 16 17  2  0
 17 18  1  0
 18 19  2  0
 19 20  1  0
 20 21  1  0
 20 22  1  0
 20 23  1  0
 19 24  1  0
 24 25  2  0
 15 26  1  0
 26 27  2  0
 27 28  1  0
 28 29  2  0
 29 30  1  0
 30 31  2  0
  8 32  2  0
 32 33  1  0
 33 34  1  0
 34 35  1  0
 35 36  1  0
 36 37  1  0
 37 38  1  0
 33 39  2  0
 39  6  1  0
 31 10  1  0
 25 16  1  0
 31 26  1  0
M  END
>  <Synonyms>  (176) 
GSK-376501|GSK-376501A|GSK376501|GSK376501A

>  <Research Codes>  (176) 
GSK-376501A|GSK376501|GSK376501A

>  <Phase>  (176) 
1

>  <Applicants>  (176) 
nan

>  <USAN Stem>  (176) 
nan

>  <USAN Year>  (176) 
nan

>  <USAN Stem Definition>  (176) 
nan

>  <USAN Stem Substem>  (176) 
nan

>  <First Approval>  (176) 
nan

>  <ATC Codes>  (176) 
nan

>  <Level 4 ATC Codes>  (176) 
nan

>  <Level 3 ATC Codes>  (176) 
nan

>  <Level 2 ATC Codes>  (176) 
nan

>  <Level 1 ATC Codes>  (176) 
nan

>  <Indication Class>  (176) 
nan

>  <Patent>  (176) 
nan

>  <Drug Type>  (176) 
1:Synthetic Small Molecule

>  <Passes Rule of Five>  (176) 
False

>  <First In Class>  (176) 
False

>  <Chirality>  (176) 
Achiral Molecule

>  <Prodrug>  (176) 
False

>  <Oral>  (176) 
False

>  <Parenteral>  (176) 
False

>  <Topical>  (176) 
False

>  <Black Box>  (176) 
False

>  <Availability Type>  (176) 
Unknown

>  <Withdrawn Year>  (176) 
nan

>  <Withdrawn Reason>  (176) 
nan

>  <Withdrawn Country>  (176) 
nan

>  <Withdrawn Class>  (176) 
nan

>  <SMILES>  (176) 
COCCOc1cc(Cn2c(C(=O)O)c(-c3ccc(C(C)(C)C)cc3)c3ccccc32)cc(OCCOC)c1

>  <InChi Key>  (176) 
OIDYMQICWGYEDR-UHFFFAOYSA-N

$$$$
CHEMBL4297544
     RDKit          2D

 15 14  0  0  0  0  0  0  0  0999 V2000
    0.0000    0.0000    0.0000 C   0  0  0  0  0  0  0  0  0  0  0  0
    1.2990    0.7500    0.0000 C   0  0  0  0  0  0  0  0  0  0  0  0
    2.5981   -0.0000    0.0000 C   0  0  0  0  0  0  0  0  0  0  0  0
    3.8971   -0.7500    0.0000 N   0  0  0  0  0  0  0  0  0  0  0  0
    1.2990    2.2500    0.0000 C   0  0  0  0  0  0  0  0  0  0  0  0
    2.5981    3.0000    0.0000 O   0  0  0  0  0  0  0  0  0  0  0  0
    0.0000    3.0000    0.0000 O   0  0  0  0  0  0  0  0  0  0  0  0
    0.0000    4.5000    0.0000 C   0  0  0  0  0  0  0  0  0  0  0  0
   -1.2990    5.2500    0.0000 C   0  0  0  0  0  0  0  0  0  0  0  0
    1.2990    5.2500    0.0000 C   0  0  0  0  0  0  0  0  0  0  0  0
    1.2990    6.7500    0.0000 C   0  0  0  0  0  0  0  0  0  0  0  0
    2.5981    7.5000    0.0000 C   0  0  0  0  0  0  0  0  0  0  0  0
    2.5981    9.0000    0.0000 C   0  0  0  0  0  0  0  0  0  0  0  0
    3.8971    9.7500    0.0000 C   0  0  0  0  0  0  0  0  0  0  0  0
    3.8971   11.2500    0.0000 C   0  0  0  0  0  0  0  0  0  0  0  0
  1  2  2  0
  2  3  1  0
  3  4  3  0
  2  5  1  0
  5  6  2  0
  5  7  1  0
  7  8  1  0
  8  9  1  0
  8 10  1  0
 10 11  1  0
 11 12  1  0
 12 13  1  0
 13 14  1  0
 14 15  1  0
M  END
>  <Synonyms>  (177) 
2-OCTYL CYANOACRYLATE|DERMABOND

>  <Research Codes>  (177) 
nan

>  <Phase>  (177) 
1

>  <Applicants>  (177) 
nan

>  <USAN Stem>  (177) 
nan

>  <USAN Year>  (177) 
nan

>  <USAN Stem Definition>  (177) 
nan

>  <USAN Stem Substem>  (177) 
nan

>  <First Approval>  (177) 
nan

>  <ATC Codes>  (177) 
nan

>  <Level 4 ATC Codes>  (177) 
nan

>  <Level 3 ATC Codes>  (177) 
nan

>  <Level 2 ATC Codes>  (177) 
nan

>  <Level 1 ATC Codes>  (177) 
nan

>  <Indication Class>  (177) 
nan

>  <Patent>  (177) 
nan

>  <Drug Type>  (177) 
1:Synthetic Small Molecule

>  <Passes Rule of Five>  (177) 
True

>  <First In Class>  (177) 
False

>  <Chirality>  (177) 
Racemic Mixture

>  <Prodrug>  (177) 
False

>  <Oral>  (177) 
False

>  <Parenteral>  (177) 
False

>  <Topical>  (177) 
False

>  <Black Box>  (177) 
False

>  <Availability Type>  (177) 
Unknown

>  <Withdrawn Year>  (177) 
nan

>  <Withdrawn Reason>  (177) 
nan

>  <Withdrawn Country>  (177) 
nan

>  <Withdrawn Class>  (177) 
nan

>  <SMILES>  (177) 
C=C(C#N)C(=O)OC(C)CCCCCC

>  <InChi Key>  (177) 
CQVWXNBVRLKXPE-UHFFFAOYSA-N

$$$$
CHEMBL4297435
     RDKit          2D

 32 34  0  0  0  0  0  0  0  0999 V2000
    4.3786   -5.1199    0.0000 C   0  0  0  0  0  0  0  0  0  0  0  0
    2.9520   -4.6564    0.0000 O   0  0  0  0  0  0  0  0  0  0  0  0
    2.6401   -3.1891    0.0000 C   0  0  0  0  0  0  0  0  0  0  0  0
    3.7548   -2.1855    0.0000 O   0  0  0  0  0  0  0  0  0  0  0  0
    1.2135   -2.7256    0.0000 C   0  0  0  0  0  0  0  0  0  0  0  0
    0.0000   -3.6073    0.0000 N   0  0  0  0  0  0  0  0  0  0  0  0
   -1.2135   -2.7256    0.0000 C   0  0  0  0  0  0  0  0  0  0  0  0
   -2.6401   -3.1891    0.0000 C   0  0  0  0  0  0  0  0  0  0  0  0
   -4.0667   -3.6527    0.0000 F   0  0  0  0  0  0  0  0  0  0  0  0
   -2.1766   -4.6157    0.0000 F   0  0  0  0  0  0  0  0  0  0  0  0
   -3.1036   -1.7626    0.0000 F   0  0  0  0  0  0  0  0  0  0  0  0
   -0.7500   -1.2990    0.0000 N   0  0  0  0  0  0  0  0  0  0  0  0
    0.7500   -1.2990    0.0000 C   0  0  0  0  0  0  0  0  0  0  0  0
    1.5000    0.0000    0.0000 C   0  0  0  0  0  0  0  0  0  0  0  0
    0.7500    1.2990    0.0000 N   0  0  0  0  0  0  0  0  0  0  0  0
    1.5000    2.5981    0.0000 C   0  0  0  0  0  0  0  0  0  0  0  0
    0.7500    3.8971    0.0000 O   0  0  0  0  0  0  0  0  0  0  0  0
    3.0000    2.5981    0.0000 C   0  0  0  0  0  0  0  0  0  0  0  0
    3.7500    3.8971    0.0000 C   0  0  0  0  0  0  0  0  0  0  0  0
    3.0000    5.1962    0.0000 N   0  0  0  0  0  0  0  0  0  0  0  0
    5.2500    3.8971    0.0000 C   0  0  0  0  0  0  0  0  0  0  0  0
    6.0000    5.1962    0.0000 C   0  0  0  0  0  0  0  0  0  0  0  0
    7.5000    5.1962    0.0000 C   0  0  0  0  0  0  0  0  0  0  0  0
    8.2500    6.4952    0.0000 C   0  0  0  0  0  0  0  0  0  0  0  0
    9.7500    6.4952    0.0000 F   0  0  0  0  0  0  0  0  0  0  0  0
    7.5000    7.7942    0.0000 C   0  0  0  0  0  0  0  0  0  0  0  0
    8.2500    9.0933    0.0000 F   0  0  0  0  0  0  0  0  0  0  0  0
    6.0000    7.7942    0.0000 C   0  0  0  0  0  0  0  0  0  0  0  0
    5.2500    6.4952    0.0000 C   0  0  0  0  0  0  0  0  0  0  0  0
    3.7500    6.4952    0.0000 F   0  0  0  0  0  0  0  0  0  0  0  0
   -0.7500    1.2990    0.0000 C   0  0  0  0  0  0  0  0  0  0  0  0
   -1.5000    0.0000    0.0000 C   0  0  0  0  0  0  0  0  0  0  0  0
  1  2  1  0
  2  3  1  0
  3  4  2  0
  3  5  1  0
  5  6  1  0
  6  7  2  0
  7  8  1  0
  8  9  1  0
  8 10  1  0
  8 11  1  0
  7 12  1  0
 12 13  1  0
 13 14  1  0
 14 15  1  0
 15 16  1  0
 16 17  2  0
 16 18  1  0
 18 19  1  0
 19 20  1  6
 19 21  1  0
 21 22  1  0
 22 23  2  0
 23 24  1  0
 24 25  1  0
 24 26  2  0
 26 27  1  0
 26 28  1  0
 28 29  2  0
 29 30  1  0
 15 31  1  0
 31 32  1  0
 13  5  2  0
 29 22  1  0
 32 12  1  0
M  END
>  <Synonyms>  (178) 
RETAGLIPTIN|SP-2086|SP2086

>  <Research Codes>  (178) 
SP-2086|SP2086

>  <Phase>  (178) 
1

>  <Applicants>  (178) 
nan

>  <USAN Stem>  (178) 
'-gliptin'

>  <USAN Year>  (178) 
nan

>  <USAN Stem Definition>  (178) 
dipeptidyl aminopeptidase-IV inhibitors

>  <USAN Stem Substem>  (178) 
'-gliptin(-gliptin)'

>  <First Approval>  (178) 
nan

>  <ATC Codes>  (178) 
nan

>  <Level 4 ATC Codes>  (178) 
nan

>  <Level 3 ATC Codes>  (178) 
nan

>  <Level 2 ATC Codes>  (178) 
nan

>  <Level 1 ATC Codes>  (178) 
nan

>  <Indication Class>  (178) 
nan

>  <Patent>  (178) 
nan

>  <Drug Type>  (178) 
1:Synthetic Small Molecule

>  <Passes Rule of Five>  (178) 
True

>  <First In Class>  (178) 
False

>  <Chirality>  (178) 
Single Stereoisomer

>  <Prodrug>  (178) 
False

>  <Oral>  (178) 
False

>  <Parenteral>  (178) 
False

>  <Topical>  (178) 
False

>  <Black Box>  (178) 
False

>  <Availability Type>  (178) 
Unknown

>  <Withdrawn Year>  (178) 
nan

>  <Withdrawn Reason>  (178) 
nan

>  <Withdrawn Country>  (178) 
nan

>  <Withdrawn Class>  (178) 
nan

>  <SMILES>  (178) 
COC(=O)c1nc(C(F)(F)F)n2c1CN(C(=O)C[C@H](N)Cc1cc(F)c(F)cc1F)CC2

>  <InChi Key>  (178) 
WIIAMRXFUJLYEF-SNVBAGLBSA-N

$$$$
CHEMBL4297463
     RDKit          2D

 37 40  0  0  0  0  0  0  0  0999 V2000
   -1.0344   -8.1310    0.0000 C   0  0  0  0  0  0  0  0  0  0  0  0
   -2.1491   -7.1273    0.0000 O   0  0  0  0  0  0  0  0  0  0  0  0
   -3.5757   -7.5908    0.0000 C   0  0  0  0  0  0  0  0  0  0  0  0
   -3.8876   -9.0580    0.0000 C   0  0  0  0  0  0  0  0  0  0  0  0
   -5.3142   -9.5216    0.0000 C   0  0  0  0  0  0  0  0  0  0  0  0
   -5.6260  -10.9888    0.0000 C   0  0  0  0  0  0  0  0  0  0  0  0
   -6.4289   -8.5179    0.0000 N   0  0  0  0  0  0  0  0  0  0  0  0
   -6.1170   -7.0506    0.0000 C   0  0  0  0  0  0  0  0  0  0  0  0
   -7.2317   -6.0469    0.0000 O   0  0  0  0  0  0  0  0  0  0  0  0
   -4.6904   -6.5871    0.0000 C   0  0  0  0  0  0  0  0  0  0  0  0
   -4.3786   -5.1199    0.0000 C   0  0  0  0  0  0  0  0  0  0  0  0
   -2.9520   -4.6564    0.0000 N   0  0  0  0  0  0  0  0  0  0  0  0
   -2.6401   -3.1891    0.0000 C   0  0  0  0  0  0  0  0  0  0  0  0
   -3.7548   -2.1855    0.0000 O   0  0  0  0  0  0  0  0  0  0  0  0
   -1.2135   -2.7256    0.0000 C   0  0  0  0  0  0  0  0  0  0  0  0
   -0.0000   -3.6073    0.0000 C   0  0  0  0  0  0  0  0  0  0  0  0
    0.0000   -5.1073    0.0000 C   0  0  0  0  0  0  0  0  0  0  0  0
    1.2135   -2.7256    0.0000 N   0  0  0  0  0  0  0  0  0  0  0  0
    2.6401   -3.1891    0.0000 C   0  0  0  0  0  0  0  0  0  0  0  0
    2.9520   -4.6564    0.0000 C   0  0  0  0  0  0  0  0  0  0  0  0
    3.7548   -2.1855    0.0000 C   0  0  0  0  0  0  0  0  0  0  0  0
    5.1814   -2.6490    0.0000 C   0  0  0  0  0  0  0  0  0  0  0  0
    6.2961   -1.6453    0.0000 C   0  0  0  0  0  0  0  0  0  0  0  0
    5.9843   -0.1781    0.0000 N   0  0  0  0  0  0  0  0  0  0  0  0
    7.0990    0.8256    0.0000 C   0  0  0  0  0  0  0  0  0  0  0  0
    8.5256    0.3621    0.0000 C   0  0  0  0  0  0  0  0  0  0  0  0
    9.9521   -0.1014    0.0000 F   0  0  0  0  0  0  0  0  0  0  0  0
    8.9891    1.7887    0.0000 F   0  0  0  0  0  0  0  0  0  0  0  0
    8.0620   -1.0645    0.0000 F   0  0  0  0  0  0  0  0  0  0  0  0
    4.5577    0.2855    0.0000 C   0  0  0  0  0  0  0  0  0  0  0  0
    3.4430   -0.7182    0.0000 C   0  0  0  0  0  0  0  0  0  0  0  0
    0.7500   -1.2990    0.0000 C   0  0  0  0  0  0  0  0  0  0  0  0
    1.5000    0.0000    0.0000 C   0  0  0  0  0  0  0  0  0  0  0  0
    0.7500    1.2990    0.0000 C   0  0  0  0  0  0  0  0  0  0  0  0
   -0.7500    1.2990    0.0000 C   0  0  0  0  0  0  0  0  0  0  0  0
   -1.5000    0.0000    0.0000 C   0  0  0  0  0  0  0  0  0  0  0  0
   -0.7500   -1.2990    0.0000 C   0  0  0  0  0  0  0  0  0  0  0  0
  1  2  1  0
  2  3  1  0
  3  4  1  0
  4  5  2  0
  5  6  1  0
  5  7  1  0
  7  8  1  0
  8  9  2  0
  8 10  1  0
 10 11  1  0
 11 12  1  0
 12 13  1  0
 13 14  2  0
 13 15  1  0
 15 16  2  0
 16 17  1  0
 16 18  1  0
 18 19  1  0
 19 20  1  1
 19 21  1  0
 21 22  1  0
 22 23  1  0
 23 24  1  0
 24 25  1  0
 25 26  1  0
 26 27  1  0
 26 28  1  0
 26 29  1  0
 24 30  1  0
 30 31  1  0
 18 32  1  0
 32 33  2  0
 33 34  1  0
 34 35  2  0
 35 36  1  0
 36 37  2  0
 10  3  2  0
 37 15  1  0
 31 21  1  0
 37 32  1  0
M  END
>  <Synonyms>  (179) 
CPI-1205

>  <Research Codes>  (179) 
CPI-1205

>  <Phase>  (179) 
1

>  <Applicants>  (179) 
nan

>  <USAN Stem>  (179) 
nan

>  <USAN Year>  (179) 
nan

>  <USAN Stem Definition>  (179) 
nan

>  <USAN Stem Substem>  (179) 
nan

>  <First Approval>  (179) 
nan

>  <ATC Codes>  (179) 
nan

>  <Level 4 ATC Codes>  (179) 
nan

>  <Level 3 ATC Codes>  (179) 
nan

>  <Level 2 ATC Codes>  (179) 
nan

>  <Level 1 ATC Codes>  (179) 
nan

>  <Indication Class>  (179) 
nan

>  <Patent>  (179) 
nan

>  <Drug Type>  (179) 
1:Synthetic Small Molecule

>  <Passes Rule of Five>  (179) 
False

>  <First In Class>  (179) 
False

>  <Chirality>  (179) 
Single Stereoisomer

>  <Prodrug>  (179) 
False

>  <Oral>  (179) 
False

>  <Parenteral>  (179) 
False

>  <Topical>  (179) 
False

>  <Black Box>  (179) 
False

>  <Availability Type>  (179) 
Unknown

>  <Withdrawn Year>  (179) 
nan

>  <Withdrawn Reason>  (179) 
nan

>  <Withdrawn Country>  (179) 
nan

>  <Withdrawn Class>  (179) 
nan

>  <SMILES>  (179) 
COc1cc(C)[nH]c(=O)c1CNC(=O)c1c(C)n([C@H](C)C2CCN(CC(F)(F)F)CC2)c2ccccc12

>  <InChi Key>  (179) 
HPODOLXTMDHLLC-QGZVFWFLSA-N

$$$$
CHEMBL4297674
     RDKit          2D

 27 29  0  0  0  0  0  0  0  0999 V2000
   -7.9861   -6.9730    0.0000 C   0  0  0  0  0  0  0  0  0  0  0  0
   -7.6742   -5.5058    0.0000 C   0  0  0  0  0  0  0  0  0  0  0  0
   -7.3624   -4.0385    0.0000 C   0  0  0  0  0  0  0  0  0  0  0  0
   -7.0505   -2.5713    0.0000 C   0  0  0  0  0  0  0  0  0  0  0  0
   -8.1652   -1.5676    0.0000 O   0  0  0  0  0  0  0  0  0  0  0  0
   -5.6239   -2.1078    0.0000 N   0  0  0  0  0  0  0  0  0  0  0  0
   -5.3120   -0.6406    0.0000 C   0  0  0  0  0  0  0  0  0  0  0  0
   -6.4268    0.3631    0.0000 C   0  0  0  0  0  0  0  0  0  0  0  0
   -6.1149    1.8303    0.0000 C   0  0  0  0  0  0  0  0  0  0  0  0
   -4.6883    2.2939    0.0000 C   0  0  0  0  0  0  0  0  0  0  0  0
   -3.5736    1.2902    0.0000 N   0  0  0  0  0  0  0  0  0  0  0  0
   -2.1470    1.7537    0.0000 C   0  0  0  0  0  0  0  0  0  0  0  0
   -1.8351    3.2209    0.0000 C   0  0  0  0  0  0  0  0  0  0  0  0
   -2.9499    4.2246    0.0000 F   0  0  0  0  0  0  0  0  0  0  0  0
   -0.4086    3.6844    0.0000 C   0  0  0  0  0  0  0  0  0  0  0  0
    0.7062    2.6807    0.0000 C   0  0  0  0  0  0  0  0  0  0  0  0
    2.1328    3.1443    0.0000 C   0  0  0  0  0  0  0  0  0  0  0  0
    2.4446    4.6115    0.0000 N   0  0  0  0  0  0  0  0  0  0  0  0
    3.2475    2.1406    0.0000 O   0  0  0  0  0  0  0  0  0  0  0  0
    0.3943    1.2135    0.0000 C   0  0  0  0  0  0  0  0  0  0  0  0
    1.2760    0.0000    0.0000 N   0  0  0  0  0  0  0  0  0  0  0  0
    0.3943   -1.2135    0.0000 C   0  0  0  0  0  0  0  0  0  0  0  0
    0.8578   -2.6401    0.0000 C   0  0  0  0  0  0  0  0  0  0  0  0
   -1.0323   -0.7500    0.0000 C   0  0  0  0  0  0  0  0  0  0  0  0
   -2.2458   -1.6317    0.0000 C   0  0  0  0  0  0  0  0  0  0  0  0
   -1.0323    0.7500    0.0000 C   0  0  0  0  0  0  0  0  0  0  0  0
   -3.8855   -0.1771    0.0000 C   0  0  0  0  0  0  0  0  0  0  0  0
  1  2  1  0
  2  3  3  0
  3  4  1  0
  4  5  2  0
  4  6  1  0
  7  6  1  1
  7  8  1  0
  8  9  1  0
  9 10  1  0
 10 11  1  0
 11 12  1  0
 12 13  2  0
 13 14  1  0
 13 15  1  0
 15 16  2  0
 16 17  1  0
 17 18  1  0
 17 19  2  0
 16 20  1  0
 20 21  1  0
 21 22  1  0
 22 23  1  0
 22 24  2  0
 24 25  1  0
 24 26  1  0
 11 27  1  0
 27  7  1  0
 26 12  1  0
 26 20  2  0
M  END
>  <Synonyms>  (180) 
BMS-986195|BRANEBRUTINIB

>  <Research Codes>  (180) 
BMS-986195

>  <Phase>  (180) 
1

>  <Applicants>  (180) 
nan

>  <USAN Stem>  (180) 
'-tinib'

>  <USAN Year>  (180) 
2018.0

>  <USAN Stem Definition>  (180) 
tyrosine kinase inhibitors: Bruton's (Btk) inhibitors

>  <USAN Stem Substem>  (180) 
'-tinib(-tinib (-brutinib))'

>  <First Approval>  (180) 
nan

>  <ATC Codes>  (180) 
nan

>  <Level 4 ATC Codes>  (180) 
nan

>  <Level 3 ATC Codes>  (180) 
nan

>  <Level 2 ATC Codes>  (180) 
nan

>  <Level 1 ATC Codes>  (180) 
nan

>  <Indication Class>  (180) 
nan

>  <Patent>  (180) 
nan

>  <Drug Type>  (180) 
1:Synthetic Small Molecule

>  <Passes Rule of Five>  (180) 
True

>  <First In Class>  (180) 
False

>  <Chirality>  (180) 
Single Stereoisomer

>  <Prodrug>  (180) 
False

>  <Oral>  (180) 
False

>  <Parenteral>  (180) 
False

>  <Topical>  (180) 
False

>  <Black Box>  (180) 
False

>  <Availability Type>  (180) 
Unknown

>  <Withdrawn Year>  (180) 
nan

>  <Withdrawn Reason>  (180) 
nan

>  <Withdrawn Country>  (180) 
nan

>  <Withdrawn Class>  (180) 
nan

>  <SMILES>  (180) 
CC#CC(=O)N[C@H]1CCCN(c2c(F)cc(C(N)=O)c3[nH]c(C)c(C)c23)C1

>  <InChi Key>  (180) 
VJPPLCNBDLZIFG-ZDUSSCGKSA-N

$$$$
CHEMBL4297476
     RDKit          2D

 21 23  0  0  0  0  0  0  0  0999 V2000
    5.2500   -3.8971    0.0000 C   0  0  0  0  0  0  0  0  0  0  0  0
    3.7500   -3.8971    0.0000 C   0  0  0  0  0  0  0  0  0  0  0  0
    3.0000   -5.1962    0.0000 C   0  0  0  0  0  0  0  0  0  0  0  0
    1.5000   -5.1962    0.0000 N   0  0  0  0  0  0  0  0  0  0  0  0
    0.7500   -3.8971    0.0000 S   0  0  0  0  0  0  0  0  0  0  0  0
   -0.3991   -4.8613    0.0000 O   0  0  0  0  0  0  0  0  0  0  0  0
   -0.3991   -2.9329    0.0000 O   0  0  0  0  0  0  0  0  0  0  0  0
    1.5000   -2.5981    0.0000 N   0  0  0  0  0  0  0  0  0  0  0  0
    0.7500   -1.2990    0.0000 C   0  0  0  0  0  0  0  0  0  0  0  0
    1.5000    0.0000    0.0000 C   0  0  0  0  0  0  0  0  0  0  0  0
    0.7500    1.2990    0.0000 C   0  0  0  0  0  0  0  0  0  0  0  0
   -0.7500    1.2990    0.0000 C   0  0  0  0  0  0  0  0  0  0  0  0
   -1.5000    2.5981    0.0000 C   0  0  0  0  0  0  0  0  0  0  0  0
   -0.7500    3.8971    0.0000 C   0  0  0  0  0  0  0  0  0  0  0  0
   -0.0000    5.1962    0.0000 N   0  0  0  0  0  0  0  0  0  0  0  0
   -3.0000    2.5981    0.0000 N   0  0  0  0  0  0  0  0  0  0  0  0
   -3.7500    1.2990    0.0000 C   0  0  0  0  0  0  0  0  0  0  0  0
   -3.0000    0.0000    0.0000 C   0  0  0  0  0  0  0  0  0  0  0  0
   -1.5000    0.0000    0.0000 C   0  0  0  0  0  0  0  0  0  0  0  0
   -0.7500   -1.2990    0.0000 C   0  0  0  0  0  0  0  0  0  0  0  0
    3.0000   -2.5981    0.0000 C   0  0  0  0  0  0  0  0  0  0  0  0
  2  1  1  6
  2  3  1  0
  3  4  1  0
  4  5  1  0
  5  6  2  0
  5  7  2  0
  5  8  1  0
  8  9  1  0
  9 10  2  0
 10 11  1  0
 11 12  2  0
 12 13  1  0
 13 14  1  0
 14 15  3  0
 13 16  2  0
 16 17  1  0
 17 18  2  0
 18 19  1  0
 19 20  2  0
  8 21  1  0
 21  2  1  0
 20  9  1  0
 19 12  1  0
M  END
>  <Synonyms>  (181) 
PF-06260414

>  <Research Codes>  (181) 
PF-06260414

>  <Phase>  (181) 
1

>  <Applicants>  (181) 
nan

>  <USAN Stem>  (181) 
nan

>  <USAN Year>  (181) 
nan

>  <USAN Stem Definition>  (181) 
nan

>  <USAN Stem Substem>  (181) 
nan

>  <First Approval>  (181) 
nan

>  <ATC Codes>  (181) 
nan

>  <Level 4 ATC Codes>  (181) 
nan

>  <Level 3 ATC Codes>  (181) 
nan

>  <Level 2 ATC Codes>  (181) 
nan

>  <Level 1 ATC Codes>  (181) 
nan

>  <Indication Class>  (181) 
nan

>  <Patent>  (181) 
nan

>  <Drug Type>  (181) 
1:Synthetic Small Molecule

>  <Passes Rule of Five>  (181) 
True

>  <First In Class>  (181) 
False

>  <Chirality>  (181) 
Single Stereoisomer

>  <Prodrug>  (181) 
False

>  <Oral>  (181) 
False

>  <Parenteral>  (181) 
False

>  <Topical>  (181) 
False

>  <Black Box>  (181) 
False

>  <Availability Type>  (181) 
Unknown

>  <Withdrawn Year>  (181) 
nan

>  <Withdrawn Reason>  (181) 
nan

>  <Withdrawn Country>  (181) 
nan

>  <Withdrawn Class>  (181) 
nan

>  <SMILES>  (181) 
C[C@@H]1CNS(=O)(=O)N(c2ccc3c(C#N)nccc3c2)C1

>  <InChi Key>  (181) 
ZKAVFOXYJCREBQ-SNVBAGLBSA-N

$$$$
CHEMBL4297394
     RDKit          2D

 12 11  0  0  0  0  0  0  0  0999 V2000
    0.0000    0.0000    0.0000 C   0  0  0  0  0  0  0  0  0  0  0  0
    1.2990    0.7500    0.0000 C   0  0  0  0  0  0  0  0  0  0  0  0
    2.5981   -0.0000    0.0000 C   0  0  0  0  0  0  0  0  0  0  0  0
    3.8971   -0.7500    0.0000 N   0  0  0  0  0  0  0  0  0  0  0  0
    1.2990    2.2500    0.0000 C   0  0  0  0  0  0  0  0  0  0  0  0
    2.5981    3.0000    0.0000 O   0  0  0  0  0  0  0  0  0  0  0  0
    0.0000    3.0000    0.0000 O   0  0  0  0  0  0  0  0  0  0  0  0
    0.0000    4.5000    0.0000 C   0  0  0  0  0  0  0  0  0  0  0  0
   -1.2990    5.2500    0.0000 C   0  0  0  0  0  0  0  0  0  0  0  0
   -1.2990    6.7500    0.0000 C   0  0  0  0  0  0  0  0  0  0  0  0
   -2.5981    7.5000    0.0000 C   0  0  0  0  0  0  0  0  0  0  0  0
    0.0000    7.5000    0.0000 C   0  0  0  0  0  0  0  0  0  0  0  0
  1  2  2  0
  2  3  1  0
  3  4  3  0
  2  5  1  0
  5  6  2  0
  5  7  1  0
  7  8  1  0
  8  9  1  0
  9 10  1  0
 10 11  1  0
 10 12  1  0
M  END
>  <Synonyms>  (182) 
ISOAMYL 2-CYANOACRYLATE|ISOPENTYL 2-CYANOACRYLATE

>  <Research Codes>  (182) 
nan

>  <Phase>  (182) 
1

>  <Applicants>  (182) 
nan

>  <USAN Stem>  (182) 
nan

>  <USAN Year>  (182) 
nan

>  <USAN Stem Definition>  (182) 
nan

>  <USAN Stem Substem>  (182) 
nan

>  <First Approval>  (182) 
nan

>  <ATC Codes>  (182) 
nan

>  <Level 4 ATC Codes>  (182) 
nan

>  <Level 3 ATC Codes>  (182) 
nan

>  <Level 2 ATC Codes>  (182) 
nan

>  <Level 1 ATC Codes>  (182) 
nan

>  <Indication Class>  (182) 
nan

>  <Patent>  (182) 
nan

>  <Drug Type>  (182) 
1:Synthetic Small Molecule

>  <Passes Rule of Five>  (182) 
True

>  <First In Class>  (182) 
False

>  <Chirality>  (182) 
Achiral Molecule

>  <Prodrug>  (182) 
False

>  <Oral>  (182) 
False

>  <Parenteral>  (182) 
False

>  <Topical>  (182) 
False

>  <Black Box>  (182) 
False

>  <Availability Type>  (182) 
Unknown

>  <Withdrawn Year>  (182) 
nan

>  <Withdrawn Reason>  (182) 
nan

>  <Withdrawn Country>  (182) 
nan

>  <Withdrawn Class>  (182) 
nan

>  <SMILES>  (182) 
C=C(C#N)C(=O)OCCC(C)C

>  <InChi Key>  (182) 
GASDVTHQNCFANM-UHFFFAOYSA-N

$$$$
CHEMBL4297587
     RDKit          2D

 32 35  0  0  0  0  0  0  0  0999 V2000
   -2.0882   -8.4404    0.0000 C   0  0  0  0  0  0  0  0  0  0  0  0
   -2.6983   -7.0701    0.0000 C   0  0  0  0  0  0  0  0  0  0  0  0
   -1.9483   -5.7711    0.0000 N   0  0  0  0  0  0  0  0  0  0  0  0
   -2.9520   -4.6564    0.0000 C   0  0  0  0  0  0  0  0  0  0  0  0
   -2.6401   -3.1891    0.0000 C   0  0  0  0  0  0  0  0  0  0  0  0
   -1.2135   -2.7256    0.0000 C   0  0  0  0  0  0  0  0  0  0  0  0
   -0.0000   -3.6073    0.0000 C   0  0  0  0  0  0  0  0  0  0  0  0
    0.0000   -5.1073    0.0000 O   0  0  0  0  0  0  0  0  0  0  0  0
    1.2135   -2.7256    0.0000 N   0  0  0  0  0  0  0  0  0  0  0  0
    0.7500   -1.2990    0.0000 C   0  0  0  0  0  0  0  0  0  0  0  0
    1.5000    0.0000    0.0000 C   0  0  0  0  0  0  0  0  0  0  0  0
    0.7500    1.2990    0.0000 C   0  0  0  0  0  0  0  0  0  0  0  0
   -0.7500    1.2990    0.0000 C   0  0  0  0  0  0  0  0  0  0  0  0
   -1.5000    2.5981    0.0000 F   0  0  0  0  0  0  0  0  0  0  0  0
   -1.5000    0.0000    0.0000 C   0  0  0  0  0  0  0  0  0  0  0  0
   -0.7500   -1.2990    0.0000 C   0  0  0  0  0  0  0  0  0  0  0  0
   -4.3223   -5.2665    0.0000 C   0  0  0  0  0  0  0  0  0  0  0  0
   -5.6213   -4.5165    0.0000 C   0  0  0  0  0  0  0  0  0  0  0  0
   -4.1655   -6.7583    0.0000 C   0  0  0  0  0  0  0  0  0  0  0  0
   -5.2802   -7.7620    0.0000 C   0  0  0  0  0  0  0  0  0  0  0  0
   -4.9684   -9.2292    0.0000 O   0  0  0  0  0  0  0  0  0  0  0  0
   -6.7068   -7.2984    0.0000 N   0  0  0  0  0  0  0  0  0  0  0  0
   -7.8215   -8.3021    0.0000 C   0  0  0  0  0  0  0  0  0  0  0  0
   -7.6647   -9.7939    0.0000 C   0  0  0  0  0  0  0  0  0  0  0  0
   -9.0350  -10.4040    0.0000 C   0  0  0  0  0  0  0  0  0  0  0  0
  -10.0387   -9.2893    0.0000 N   0  0  0  0  0  0  0  0  0  0  0  0
  -11.5305   -9.4461    0.0000 C   0  0  0  0  0  0  0  0  0  0  0  0
  -12.1406  -10.8164    0.0000 O   0  0  0  0  0  0  0  0  0  0  0  0
  -12.4122   -8.2326    0.0000 N   0  0  0  0  0  0  0  0  0  0  0  0
  -13.9040   -8.3894    0.0000 C   0  0  0  0  0  0  0  0  0  0  0  0
  -11.8021   -6.8622    0.0000 C   0  0  0  0  0  0  0  0  0  0  0  0
   -9.2887   -7.9903    0.0000 C   0  0  0  0  0  0  0  0  0  0  0  0
  1  2  1  0
  2  3  1  0
  3  4  1  0
  4  5  1  0
  5  6  1  0
  6  7  2  0
  7  8  1  0
  7  9  1  0
  9 10  1  0
 10 11  2  0
 11 12  1  0
 12 13  2  0
 13 14  1  0
 13 15  1  0
 15 16  2  0
  4 17  2  0
 17 18  1  0
 17 19  1  0
 19 20  1  0
 20 21  2  0
 20 22  1  0
 22 23  2  3
 23 24  1  0
 24 25  1  0
 25 26  1  0
 26 27  1  0
 27 28  2  0
 27 29  1  0
 29 30  1  0
 29 31  1  0
 26 32  1  0
 19  2  2  0
 32 23  1  0
 16  6  1  0
 16 10  1  0
M  END
>  <Synonyms>  (183) 
VOROLANIB

>  <Research Codes>  (183) 
nan

>  <Phase>  (183) 
1

>  <Applicants>  (183) 
nan

>  <USAN Stem>  (183) 
'-anib'

>  <USAN Year>  (183) 
nan

>  <USAN Stem Definition>  (183) 
angiogenesis inhibitors

>  <USAN Stem Substem>  (183) 
'-anib(-anib)'

>  <First Approval>  (183) 
nan

>  <ATC Codes>  (183) 
nan

>  <Level 4 ATC Codes>  (183) 
nan

>  <Level 3 ATC Codes>  (183) 
nan

>  <Level 2 ATC Codes>  (183) 
nan

>  <Level 1 ATC Codes>  (183) 
nan

>  <Indication Class>  (183) 
nan

>  <Patent>  (183) 
nan

>  <Drug Type>  (183) 
1:Synthetic Small Molecule

>  <Passes Rule of Five>  (183) 
True

>  <First In Class>  (183) 
False

>  <Chirality>  (183) 
Single Stereoisomer

>  <Prodrug>  (183) 
False

>  <Oral>  (183) 
False

>  <Parenteral>  (183) 
False

>  <Topical>  (183) 
False

>  <Black Box>  (183) 
False

>  <Availability Type>  (183) 
Unknown

>  <Withdrawn Year>  (183) 
nan

>  <Withdrawn Reason>  (183) 
nan

>  <Withdrawn Country>  (183) 
nan

>  <Withdrawn Class>  (183) 
nan

>  <SMILES>  (183) 
Cc1[nH]c(/C=C2\C(=O)Nc3ccc(F)cc32)c(C)c1C(=O)N[C@H]1CCN(C(=O)N(C)C)C1

>  <InChi Key>  (183) 
MUIJGUZMGMAULA-UHFFFAOYSA-N

$$$$
CHEMBL4297597
     RDKit          2D

 39 43  0  0  0  0  0  0  0  0999 V2000
    6.1386   -1.4557    0.0000 C   0  0  0  0  0  0  0  0  0  0  0  0
    4.9895   -2.4199    0.0000 O   0  0  0  0  0  0  0  0  0  0  0  0
    5.2500   -3.8971    0.0000 C   0  0  0  0  0  0  0  0  0  0  0  0
    3.7500   -3.8971    0.0000 C   0  0  0  0  0  0  0  0  0  0  0  0
    3.0000   -5.1962    0.0000 O   0  0  0  0  0  0  0  0  0  0  0  0
    3.0000   -2.5981    0.0000 N   0  0  0  0  0  0  0  0  0  0  0  0
    1.5000   -2.5981    0.0000 C   0  0  0  0  0  0  0  0  0  0  0  0
    0.7500   -3.8971    0.0000 C   0  0  0  0  0  0  0  0  0  0  0  0
    0.7500   -1.2990    0.0000 C   0  0  0  0  0  0  0  0  0  0  0  0
    1.5000    0.0000    0.0000 C   0  0  0  0  0  0  0  0  0  0  0  0
    0.7500    1.2990    0.0000 C   0  0  0  0  0  0  0  0  0  0  0  0
   -0.7500    1.2990    0.0000 C   0  0  0  0  0  0  0  0  0  0  0  0
   -1.5000    2.5981    0.0000 N   0  0  0  0  0  0  0  0  0  0  0  0
   -2.9918    2.7549    0.0000 C   0  0  0  0  0  0  0  0  0  0  0  0
   -3.3037    4.2221    0.0000 C   0  0  0  0  0  0  0  0  0  0  0  0
   -4.6740    4.8322    0.0000 F   0  0  0  0  0  0  0  0  0  0  0  0
   -2.0046    4.9721    0.0000 C   0  0  0  0  0  0  0  0  0  0  0  0
   -0.8899    3.9684    0.0000 N   0  0  0  0  0  0  0  0  0  0  0  0
   -1.5000    0.0000    0.0000 N   0  0  0  0  0  0  0  0  0  0  0  0
   -0.7500   -1.2990    0.0000 C   0  0  0  0  0  0  0  0  0  0  0  0
    4.9895   -5.3743    0.0000 C   0  0  0  0  0  0  0  0  0  0  0  0
    6.1386   -6.3385    0.0000 C   0  0  0  0  0  0  0  0  0  0  0  0
    7.5481   -5.8255    0.0000 C   0  0  0  0  0  0  0  0  0  0  0  0
    8.6972   -6.7897    0.0000 C   0  0  0  0  0  0  0  0  0  0  0  0
    8.4367   -8.2669    0.0000 N   0  0  0  0  0  0  0  0  0  0  0  0
    9.5858   -9.2311    0.0000 C   0  0  0  0  0  0  0  0  0  0  0  0
    9.3253  -10.7083    0.0000 C   0  0  0  0  0  0  0  0  0  0  0  0
   10.9953   -8.7180    0.0000 C   0  0  0  0  0  0  0  0  0  0  0  0
   11.2558   -7.2408    0.0000 C   0  0  0  0  0  0  0  0  0  0  0  0
   12.6653   -6.7278    0.0000 N   0  0  0  0  0  0  0  0  0  0  0  0
   13.8144   -7.6920    0.0000 C   0  0  0  0  0  0  0  0  0  0  0  0
   15.2699   -7.3291    0.0000 C   0  0  0  0  0  0  0  0  0  0  0  0
   16.0647   -8.6012    0.0000 C   0  0  0  0  0  0  0  0  0  0  0  0
   17.5611   -8.7058    0.0000 C   0  0  0  0  0  0  0  0  0  0  0  0
   15.1006   -9.7502    0.0000 N   0  0  0  0  0  0  0  0  0  0  0  0
   13.7098   -9.1883    0.0000 N   0  0  0  0  0  0  0  0  0  0  0  0
   10.1067   -6.2766    0.0000 N   0  0  0  0  0  0  0  0  0  0  0  0
    7.8086   -4.3483    0.0000 C   0  0  0  0  0  0  0  0  0  0  0  0
    6.6595   -3.3841    0.0000 C   0  0  0  0  0  0  0  0  0  0  0  0
  1  2  1  0
  2  3  1  0
  3  4  1  0
  4  5  2  0
  4  6  1  0
  6  7  1  0
  7  8  1  1
  7  9  1  0
  9 10  2  0
 10 11  1  0
 11 12  2  0
 12 13  1  0
 13 14  1  0
 14 15  2  0
 15 16  1  0
 15 17  1  0
 17 18  2  0
 12 19  1  0
 19 20  2  0
  3 21  1  0
 21 22  1  0
 22 23  1  0
 23 24  1  0
 24 25  1  0
 25 26  1  0
 26 27  1  0
 26 28  2  0
 28 29  1  0
 29 30  2  3
 30 31  1  0
 31 32  1  0
 32 33  2  0
 33 34  1  0
 33 35  1  0
 35 36  1  0
 29 37  1  0
 23 38  1  0
 38 39  1  0
 39  3  1  0
 20  9  1  0
 37 24  2  0
 18 13  1  0
 36 31  2  0
M  END
>  <Synonyms>  (184) 
BLU-667|PRALSETINIB

>  <Research Codes>  (184) 
BLU-667

>  <Phase>  (184) 
1

>  <Applicants>  (184) 
nan

>  <USAN Stem>  (184) 
'-tinib'

>  <USAN Year>  (184) 
nan

>  <USAN Stem Definition>  (184) 
tyrosine kinase inhibitors

>  <USAN Stem Substem>  (184) 
'-tinib(-tinib)'

>  <First Approval>  (184) 
nan

>  <ATC Codes>  (184) 
nan

>  <Level 4 ATC Codes>  (184) 
nan

>  <Level 3 ATC Codes>  (184) 
nan

>  <Level 2 ATC Codes>  (184) 
nan

>  <Level 1 ATC Codes>  (184) 
nan

>  <Indication Class>  (184) 
nan

>  <Patent>  (184) 
nan

>  <Drug Type>  (184) 
1:Synthetic Small Molecule

>  <Passes Rule of Five>  (184) 
False

>  <First In Class>  (184) 
False

>  <Chirality>  (184) 
Single Stereoisomer

>  <Prodrug>  (184) 
False

>  <Oral>  (184) 
False

>  <Parenteral>  (184) 
False

>  <Topical>  (184) 
False

>  <Black Box>  (184) 
False

>  <Availability Type>  (184) 
Unknown

>  <Withdrawn Year>  (184) 
nan

>  <Withdrawn Reason>  (184) 
nan

>  <Withdrawn Country>  (184) 
nan

>  <Withdrawn Class>  (184) 
nan

>  <SMILES>  (184) 
CO[C@]1(C(=O)N[C@@H](C)c2ccc(-n3cc(F)cn3)nc2)CC[C@@H](c2nc(C)cc(Nc3cc(C)[nH]n3)n2)CC1

>  <InChi Key>  (184) 
GBLBJPZSROAGMF-SIYOEGHHSA-N

$$$$
CHEMBL4297627
     RDKit          2D

 28 32  0  0  0  0  0  0  0  0999 V2000
   -0.4791    8.4435    0.0000 C   0  0  0  0  0  0  0  0  0  0  0  0
   -0.7317    6.9649    0.0000 C   0  0  0  0  0  0  0  0  0  0  0  0
    0.6435    6.3659    0.0000 C   0  0  0  0  0  0  0  0  0  0  0  0
    1.5828    5.1963    0.0000 C   0  0  0  0  0  0  0  0  0  0  0  0
    1.8710    3.7243    0.0000 C   0  0  0  0  0  0  0  0  0  0  0  0
    3.3302    4.0715    0.0000 N   0  0  0  0  0  0  0  0  0  0  0  0
    4.3606    2.9814    0.0000 C   0  0  0  0  0  0  0  0  0  0  0  0
    3.9317    1.5440    0.0000 C   0  0  0  0  0  0  0  0  0  0  0  0
    4.9620    0.4539    0.0000 F   0  0  0  0  0  0  0  0  0  0  0  0
    2.4724    1.1968    0.0000 C   0  0  0  0  0  0  0  0  0  0  0  0
    1.4421    2.2869    0.0000 C   0  0  0  0  0  0  0  0  0  0  0  0
    0.3943    1.2135    0.0000 C   0  0  0  0  0  0  0  0  0  0  0  0
    1.2760    0.0000    0.0000 C   0  0  0  0  0  0  0  0  0  0  0  0
    0.3943   -1.2135    0.0000 C   0  0  0  0  0  0  0  0  0  0  0  0
   -1.0323   -0.7500    0.0000 C   0  0  0  0  0  0  0  0  0  0  0  0
   -1.0323    0.7500    0.0000 N   0  0  0  0  0  0  0  0  0  0  0  0
   -2.5109    1.0025    0.0000 C   0  0  0  0  0  0  0  0  0  0  0  0
   -4.4771    0.6330    0.0000 C   0  0  0  0  0  0  0  0  0  0  0  0
   -5.7781    1.3795    0.0000 C   0  0  0  0  0  0  0  0  0  0  0  0
   -5.7822    2.8795    0.0000 N   0  0  0  0  0  0  0  0  0  0  0  0
   -6.6042    4.1342    0.0000 N   0  0  0  0  0  0  0  0  0  0  0  0
   -5.6649    5.3037    0.0000 C   0  0  0  0  0  0  0  0  0  0  0  0
   -4.2624    4.7718    0.0000 C   0  0  0  0  0  0  0  0  0  0  0  0
   -4.3348    3.2736    0.0000 C   0  0  0  0  0  0  0  0  0  0  0  0
   -3.7027    1.9133    0.0000 N   0  0  0  0  0  0  0  0  0  0  0  0
   -3.5019    6.0648    0.0000 C   0  0  0  0  0  0  0  0  0  0  0  0
   -4.5753    7.1126    0.0000 O   0  0  0  0  0  0  0  0  0  0  0  0
   -2.2277    6.8563    0.0000 N   0  0  0  0  0  0  0  0  0  0  0  0
  2  1  1  6
  2  3  1  0
  3  4  1  0
  4  5  1  0
  5  6  2  0
  6  7  1  0
  7  8  2  0
  8  9  1  0
  8 10  1  0
 10 11  2  0
 11 12  1  0
 12 13  1  1
 13 14  1  0
 14 15  1  0
 15 16  1  0
 16 17  1  0
 17 18  1  0
 18 19  2  0
 19 20  1  0
 20 21  1  0
 21 22  2  0
 22 23  1  0
 23 24  2  0
 24 25  1  0
 23 26  1  0
 26 27  2  0
 26 28  1  0
 28  2  1  0
 11  5  1  0
 16 12  1  0
 25 17  2  0
 24 20  1  0
M  END
>  <Synonyms>  (185) 
LOXO-195|SELITRECTINIB

>  <Research Codes>  (185) 
LOXO-195

>  <Phase>  (185) 
1

>  <Applicants>  (185) 
nan

>  <USAN Stem>  (185) 
'-tinib'

>  <USAN Year>  (185) 
nan

>  <USAN Stem Definition>  (185) 
tyrosine kinase inhibitors: tropomyosin receptor kinase (TRK) inhibitors

>  <USAN Stem Substem>  (185) 
'-tinib(-tinib (-trectinib))'

>  <First Approval>  (185) 
nan

>  <ATC Codes>  (185) 
nan

>  <Level 4 ATC Codes>  (185) 
nan

>  <Level 3 ATC Codes>  (185) 
nan

>  <Level 2 ATC Codes>  (185) 
nan

>  <Level 1 ATC Codes>  (185) 
nan

>  <Indication Class>  (185) 
nan

>  <Patent>  (185) 
nan

>  <Drug Type>  (185) 
7:Natural Product-derived

>  <Passes Rule of Five>  (185) 
True

>  <First In Class>  (185) 
False

>  <Chirality>  (185) 
Single Stereoisomer

>  <Prodrug>  (185) 
False

>  <Oral>  (185) 
False

>  <Parenteral>  (185) 
False

>  <Topical>  (185) 
False

>  <Black Box>  (185) 
False

>  <Availability Type>  (185) 
Unknown

>  <Withdrawn Year>  (185) 
nan

>  <Withdrawn Reason>  (185) 
nan

>  <Withdrawn Country>  (185) 
nan

>  <Withdrawn Class>  (185) 
nan

>  <SMILES>  (185) 
C[C@@H]1CCc2ncc(F)cc2[C@H]2CCCN2c2ccn3ncc(c3n2)C(=O)N1

>  <InChi Key>  (185) 
OEBIHOVSAMBXIB-SJKOYZFVSA-N

$$$$
CHEMBL4297451
     RDKit          2D

 37 41  0  0  0  0  0  0  0  0999 V2000
   -1.4056    8.9440    0.0000 C   0  0  0  0  0  0  0  0  0  0  0  0
   -2.7759    8.3339    0.0000 C   0  0  0  0  0  0  0  0  0  0  0  0
   -3.9894    9.2156    0.0000 C   0  0  0  0  0  0  0  0  0  0  0  0
   -3.8326   10.7074    0.0000 C   0  0  0  0  0  0  0  0  0  0  0  0
   -5.3597    8.6055    0.0000 N   0  0  0  0  0  0  0  0  0  0  0  0
   -5.5165    7.1137    0.0000 C   0  0  0  0  0  0  0  0  0  0  0  0
   -4.3030    6.2320    0.0000 C   0  0  0  0  0  0  0  0  0  0  0  0
   -4.4598    4.7402    0.0000 C   0  0  0  0  0  0  0  0  0  0  0  0
   -3.2463    3.8586    0.0000 C   0  0  0  0  0  0  0  0  0  0  0  0
   -1.8760    4.4687    0.0000 O   0  0  0  0  0  0  0  0  0  0  0  0
   -3.4031    2.3668    0.0000 N   0  0  0  0  0  0  0  0  0  0  0  0
   -2.1895    1.4851    0.0000 C   0  0  0  0  0  0  0  0  0  0  0  0
   -0.8192    2.0952    0.0000 C   0  0  0  0  0  0  0  0  0  0  0  0
    0.3943    1.2135    0.0000 C   0  0  0  0  0  0  0  0  0  0  0  0
    1.2760    0.0000    0.0000 C   0  0  0  0  0  0  0  0  0  0  0  0
    0.3943   -1.2135    0.0000 C   0  0  0  0  0  0  0  0  0  0  0  0
   -1.0323   -0.7500    0.0000 C   0  0  0  0  0  0  0  0  0  0  0  0
   -2.3463   -0.0067    0.0000 C   0  0  0  0  0  0  0  0  0  0  0  0
   -1.0323    0.7500    0.0000 N   0  0  0  0  0  0  0  0  0  0  0  0
   -2.2458    1.6317    0.0000 C   0  0  0  0  0  0  0  0  0  0  0  0
   -2.0890    3.1235    0.0000 C   0  0  0  0  0  0  0  0  0  0  0  0
   -3.3025    4.0051    0.0000 C   0  0  0  0  0  0  0  0  0  0  0  0
   -4.6729    3.3950    0.0000 C   0  0  0  0  0  0  0  0  0  0  0  0
   -5.8864    4.2767    0.0000 C   0  0  0  0  0  0  0  0  0  0  0  0
   -5.7296    5.7685    0.0000 O   0  0  0  0  0  0  0  0  0  0  0  0
   -7.2567    3.6666    0.0000 C   0  0  0  0  0  0  0  0  0  0  0  0
   -8.1384    2.4531    0.0000 C   0  0  0  0  0  0  0  0  0  0  0  0
   -8.7485    3.8234    0.0000 C   0  0  0  0  0  0  0  0  0  0  0  0
   -4.8297    1.9033    0.0000 C   0  0  0  0  0  0  0  0  0  0  0  0
   -3.6161    1.0216    0.0000 N   0  0  0  0  0  0  0  0  0  0  0  0
   -5.8301    4.1301    0.0000 C   0  0  0  0  0  0  0  0  0  0  0  0
   -5.9869    2.6383    0.0000 C   0  0  0  0  0  0  0  0  0  0  0  0
   -7.0436    5.0118    0.0000 C   0  0  0  0  0  0  0  0  0  0  0  0
   -6.8869    6.5036    0.0000 C   0  0  0  0  0  0  0  0  0  0  0  0
   -8.1004    7.3853    0.0000 C   0  0  0  0  0  0  0  0  0  0  0  0
   -7.9436    8.8771    0.0000 N   0  0  0  0  0  0  0  0  0  0  0  0
   -9.4707    6.7752    0.0000 O   0  0  0  0  0  0  0  0  0  0  0  0
  1  2  1  0
  2  3  1  0
  3  4  1  0
  3  5  1  0
  5  6  1  0
  6  7  2  0
  7  8  1  0
  8  9  1  0
  9 10  2  0
  9 11  1  0
 11 12  1  0
 12 13  1  0
 14 13  1  6
 14 15  1  0
 15 16  1  0
 17 16  1  6
 17 18  1  0
 17 19  1  0
 19 20  1  0
 20 21  2  0
 21 22  1  0
 22 23  2  0
 23 24  1  0
 24 25  2  0
 24 26  1  0
 26 27  1  0
 27 28  1  0
 23 29  1  0
 29 30  2  0
  8 31  2  0
 31 32  1  0
 31 33  1  0
 33 34  2  0
 34 35  1  0
 35 36  1  0
 35 37  2  0
 34  6  1  0
 18 12  1  0
 30 20  1  0
 19 14  1  0
 28 26  1  0
M  END
>  <Synonyms>  (186) 
XL-888|XL888

>  <Research Codes>  (186) 
nan

>  <Phase>  (186) 
1

>  <Applicants>  (186) 
nan

>  <USAN Stem>  (186) 
nan

>  <USAN Year>  (186) 
nan

>  <USAN Stem Definition>  (186) 
nan

>  <USAN Stem Substem>  (186) 
nan

>  <First Approval>  (186) 
nan

>  <ATC Codes>  (186) 
nan

>  <Level 4 ATC Codes>  (186) 
nan

>  <Level 3 ATC Codes>  (186) 
nan

>  <Level 2 ATC Codes>  (186) 
nan

>  <Level 1 ATC Codes>  (186) 
nan

>  <Indication Class>  (186) 
nan

>  <Patent>  (186) 
nan

>  <Drug Type>  (186) 
1:Synthetic Small Molecule

>  <Passes Rule of Five>  (186) 
False

>  <First In Class>  (186) 
False

>  <Chirality>  (186) 
Single Stereoisomer

>  <Prodrug>  (186) 
False

>  <Oral>  (186) 
False

>  <Parenteral>  (186) 
False

>  <Topical>  (186) 
False

>  <Black Box>  (186) 
False

>  <Availability Type>  (186) 
Unknown

>  <Withdrawn Year>  (186) 
nan

>  <Withdrawn Reason>  (186) 
nan

>  <Withdrawn Country>  (186) 
nan

>  <Withdrawn Class>  (186) 
nan

>  <SMILES>  (186) 
CC[C@@H](C)Nc1cc(C(=O)N[C@@H]2C[C@@H]3CC[C@H](C2)N3c2ccc(C(=O)C3CC3)cn2)c(C)cc1C(N)=O

>  <InChi Key>  (186) 
LHGWWAFKVCIILM-DGRCWTBNSA-N

$$$$
CHEMBL4297467
     RDKit          2D

 45 50  0  0  0  0  0  0  0  0999 V2000
   10.5882    7.3645    0.0000 N   0  0  0  0  0  0  0  0  0  0  0  0
    9.1210    7.0526    0.0000 C   0  0  0  0  0  0  0  0  0  0  0  0
    8.6575    5.6260    0.0000 C   0  0  0  0  0  0  0  0  0  0  0  0
    7.1902    5.3142    0.0000 C   0  0  0  0  0  0  0  0  0  0  0  0
    6.1865    6.4289    0.0000 C   0  0  0  0  0  0  0  0  0  0  0  0
    4.7193    6.1170    0.0000 C   0  0  0  0  0  0  0  0  0  0  0  0
    4.2558    4.6904    0.0000 C   0  0  0  0  0  0  0  0  0  0  0  0
    2.7886    4.3786    0.0000 C   0  0  0  0  0  0  0  0  0  0  0  0
    1.7849    5.4933    0.0000 O   0  0  0  0  0  0  0  0  0  0  0  0
    2.3250    2.9520    0.0000 N   0  0  0  0  0  0  0  0  0  0  0  0
    0.8578    2.6401    0.0000 C   0  0  0  0  0  0  0  0  0  0  0  0
    0.3943    1.2135    0.0000 C   0  0  0  0  0  0  0  0  0  0  0  0
    1.2760    0.0000    0.0000 C   0  0  0  0  0  0  0  0  0  0  0  0
    0.3943   -1.2135    0.0000 C   0  0  0  0  0  0  0  0  0  0  0  0
    0.7062   -2.6807    0.0000 C   0  0  0  0  0  0  0  0  0  0  0  0
   -0.4086   -3.6844    0.0000 C   0  0  0  0  0  0  0  0  0  0  0  0
   -0.0967   -5.1517    0.0000 C   0  0  0  0  0  0  0  0  0  0  0  0
   -1.2114   -6.1554    0.0000 C   0  0  0  0  0  0  0  0  0  0  0  0
   -0.8995   -7.6226    0.0000 C   0  0  0  0  0  0  0  0  0  0  0  0
    0.5271   -8.0861    0.0000 C   0  0  0  0  0  0  0  0  0  0  0  0
    0.8389   -9.5533    0.0000 C   0  0  0  0  0  0  0  0  0  0  0  0
    2.2655  -10.0169    0.0000 O   0  0  0  0  0  0  0  0  0  0  0  0
   -0.2758  -10.5570    0.0000 N   0  0  0  0  0  0  0  0  0  0  0  0
   -1.7024  -10.0935    0.0000 C   0  0  0  0  0  0  0  0  0  0  0  0
   -2.8171  -11.0972    0.0000 C   0  0  0  0  0  0  0  0  0  0  0  0
   -2.5052  -12.5644    0.0000 C   0  0  0  0  0  0  0  0  0  0  0  0
   -2.7140  -14.0498    0.0000 F   0  0  0  0  0  0  0  0  0  0  0  0
   -4.0043  -12.6168    0.0000 F   0  0  0  0  0  0  0  0  0  0  0  0
   -1.0786  -13.0279    0.0000 C   0  0  0  0  0  0  0  0  0  0  0  0
    0.0361  -12.0242    0.0000 C   0  0  0  0  0  0  0  0  0  0  0  0
    1.6418   -7.0824    0.0000 C   0  0  0  0  0  0  0  0  0  0  0  0
    1.3299   -5.6152    0.0000 C   0  0  0  0  0  0  0  0  0  0  0  0
   -1.8351   -3.2209    0.0000 C   0  0  0  0  0  0  0  0  0  0  0  0
   -2.1470   -1.7537    0.0000 C   0  0  0  0  0  0  0  0  0  0  0  0
   -3.5736   -1.2902    0.0000 C   0  0  0  0  0  0  0  0  0  0  0  0
   -3.8855    0.1771    0.0000 C   0  0  0  0  0  0  0  0  0  0  0  0
   -5.3120    0.6406    0.0000 C   0  0  0  0  0  0  0  0  0  0  0  0
   -6.4268   -0.3631    0.0000 C   0  0  0  0  0  0  0  0  0  0  0  0
   -7.8533    0.1004    0.0000 F   0  0  0  0  0  0  0  0  0  0  0  0
   -6.1149   -1.8303    0.0000 C   0  0  0  0  0  0  0  0  0  0  0  0
   -4.6883   -2.2939    0.0000 C   0  0  0  0  0  0  0  0  0  0  0  0
   -1.0323   -0.7500    0.0000 C   0  0  0  0  0  0  0  0  0  0  0  0
   -1.0323    0.7500    0.0000 O   0  0  0  0  0  0  0  0  0  0  0  0
    6.6501    7.8555    0.0000 C   0  0  0  0  0  0  0  0  0  0  0  0
    8.1173    8.1673    0.0000 N   0  0  0  0  0  0  0  0  0  0  0  0
  1  2  2  0
  2  3  1  0
  3  4  2  0
  4  5  1  0
  5  6  1  0
  6  7  2  3
  7  8  1  0
  8  9  2  0
  8 10  1  0
 10 11  1  0
 11 12  1  0
 12 13  2  0
 13 14  1  0
 14 15  2  0
 15 16  1  0
 16 17  1  0
 17 18  2  0
 18 19  1  0
 19 20  2  0
 20 21  1  0
 21 22  2  0
 21 23  1  0
 23 24  1  0
 24 25  1  0
 25 26  1  0
 26 27  1  0
 26 28  1  0
 26 29  1  0
 29 30  1  0
 20 31  1  0
 31 32  2  0
 16 33  2  0
 33 34  1  0
 34 35  1  0
 35 36  2  0
 36 37  1  0
 37 38  2  0
 38 39  1  0
 38 40  1  0
 40 41  2  0
 34 42  2  0
 42 43  1  0
  5 44  2  0
 44 45  1  0
 45  2  1  0
 43 12  1  0
 42 14  1  0
 32 17  1  0
 41 35  1  0
 30 23  1  0
M  END
>  <Synonyms>  (187) 
KPT-9274

>  <Research Codes>  (187) 
KPT-9274

>  <Phase>  (187) 
1

>  <Applicants>  (187) 
nan

>  <USAN Stem>  (187) 
nan

>  <USAN Year>  (187) 
nan

>  <USAN Stem Definition>  (187) 
nan

>  <USAN Stem Substem>  (187) 
nan

>  <First Approval>  (187) 
nan

>  <ATC Codes>  (187) 
nan

>  <Level 4 ATC Codes>  (187) 
nan

>  <Level 3 ATC Codes>  (187) 
nan

>  <Level 2 ATC Codes>  (187) 
nan

>  <Level 1 ATC Codes>  (187) 
nan

>  <Indication Class>  (187) 
nan

>  <Patent>  (187) 
nan

>  <Drug Type>  (187) 
1:Synthetic Small Molecule

>  <Passes Rule of Five>  (187) 
False

>  <First In Class>  (187) 
False

>  <Chirality>  (187) 
Achiral Molecule

>  <Prodrug>  (187) 
False

>  <Oral>  (187) 
False

>  <Parenteral>  (187) 
False

>  <Topical>  (187) 
False

>  <Black Box>  (187) 
False

>  <Availability Type>  (187) 
Unknown

>  <Withdrawn Year>  (187) 
nan

>  <Withdrawn Reason>  (187) 
nan

>  <Withdrawn Country>  (187) 
nan

>  <Withdrawn Class>  (187) 
nan

>  <SMILES>  (187) 
Nc1ccc(/C=C/C(=O)NCc2cc3cc(-c4ccc(C(=O)N5CCC(F)(F)CC5)cc4)cc(-c4ccc(F)cc4)c3o2)cn1

>  <InChi Key>  (187) 
MRFOPLWJZULAQD-UHFFFAOYSA-N

$$$$
CHEMBL4297470
     RDKit          2D

 31 35  0  0  0  0  0  0  0  0999 V2000
   -2.1491   -7.1273    0.0000 C   0  0  0  0  0  0  0  0  0  0  0  0
   -1.8373   -5.6601    0.0000 O   0  0  0  0  0  0  0  0  0  0  0  0
   -2.9520   -4.6564    0.0000 C   0  0  0  0  0  0  0  0  0  0  0  0
   -4.3786   -5.1199    0.0000 C   0  0  0  0  0  0  0  0  0  0  0  0
   -5.4933   -4.1162    0.0000 C   0  0  0  0  0  0  0  0  0  0  0  0
   -6.9199   -4.5797    0.0000 F   0  0  0  0  0  0  0  0  0  0  0  0
   -5.1814   -2.6490    0.0000 C   0  0  0  0  0  0  0  0  0  0  0  0
   -3.7548   -2.1855    0.0000 C   0  0  0  0  0  0  0  0  0  0  0  0
   -2.6401   -3.1891    0.0000 C   0  0  0  0  0  0  0  0  0  0  0  0
   -1.2135   -2.7256    0.0000 C   0  0  0  0  0  0  0  0  0  0  0  0
   -0.0000   -3.6073    0.0000 C   0  0  0  0  0  0  0  0  0  0  0  0
    0.0000   -5.1073    0.0000 C   0  0  0  0  0  0  0  0  0  0  0  0
    1.2135   -2.7256    0.0000 S   0  0  0  0  0  0  0  0  0  0  0  0
    0.7500   -1.2990    0.0000 C   0  0  0  0  0  0  0  0  0  0  0  0
    1.5000    0.0000    0.0000 C   0  0  0  0  0  0  0  0  0  0  0  0
    0.7500    1.2990    0.0000 N   0  0  0  0  0  0  0  0  0  0  0  0
   -0.7500    1.2990    0.0000 C   0  0  0  0  0  0  0  0  0  0  0  0
   -1.5000    2.5981    0.0000 N   0  0  0  0  0  0  0  0  0  0  0  0
   -0.7500    3.8971    0.0000 C   0  0  0  0  0  0  0  0  0  0  0  0
   -1.3601    5.2674    0.0000 C   0  0  0  0  0  0  0  0  0  0  0  0
   -0.2454    6.2711    0.0000 N   0  0  0  0  0  0  0  0  0  0  0  0
    1.0537    5.5211    0.0000 N   0  0  0  0  0  0  0  0  0  0  0  0
    2.4240    6.1312    0.0000 C   0  0  0  0  0  0  0  0  0  0  0  0
    3.6375    5.2496    0.0000 C   0  0  0  0  0  0  0  0  0  0  0  0
    5.0078    5.8597    0.0000 C   0  0  0  0  0  0  0  0  0  0  0  0
    5.1646    7.3514    0.0000 N   0  0  0  0  0  0  0  0  0  0  0  0
    3.9511    8.2331    0.0000 C   0  0  0  0  0  0  0  0  0  0  0  0
    2.5808    7.6230    0.0000 C   0  0  0  0  0  0  0  0  0  0  0  0
    0.7418    4.0539    0.0000 C   0  0  0  0  0  0  0  0  0  0  0  0
   -1.5000    0.0000    0.0000 N   0  0  0  0  0  0  0  0  0  0  0  0
   -0.7500   -1.2990    0.0000 C   0  0  0  0  0  0  0  0  0  0  0  0
  1  2  1  0
  2  3  1  0
  3  4  2  0
  4  5  1  0
  5  6  1  0
  5  7  2  0
  7  8  1  0
  8  9  2  0
  9 10  1  0
 10 11  2  0
 11 12  1  0
 11 13  1  0
 13 14  1  0
 14 15  2  0
 15 16  1  0
 16 17  1  0
 17 18  2  3
 18 19  1  0
 19 20  1  0
 20 21  2  0
 21 22  1  0
 22 23  1  0
 23 24  1  0
 24 25  1  0
 25 26  1  0
 26 27  1  0
 27 28  1  0
 22 29  1  0
 17 30  1  0
 30 31  2  0
  9  3  1  0
 31 10  1  0
 31 14  1  0
 29 19  2  0
 28 23  1  0
M  END
>  <Synonyms>  (188) 
MAX-40279

>  <Research Codes>  (188) 
MAX-40279

>  <Phase>  (188) 
1

>  <Applicants>  (188) 
nan

>  <USAN Stem>  (188) 
nan

>  <USAN Year>  (188) 
nan

>  <USAN Stem Definition>  (188) 
nan

>  <USAN Stem Substem>  (188) 
nan

>  <First Approval>  (188) 
nan

>  <ATC Codes>  (188) 
nan

>  <Level 4 ATC Codes>  (188) 
nan

>  <Level 3 ATC Codes>  (188) 
nan

>  <Level 2 ATC Codes>  (188) 
nan

>  <Level 1 ATC Codes>  (188) 
nan

>  <Indication Class>  (188) 
nan

>  <Patent>  (188) 
nan

>  <Drug Type>  (188) 
1:Synthetic Small Molecule

>  <Passes Rule of Five>  (188) 
True

>  <First In Class>  (188) 
False

>  <Chirality>  (188) 
Achiral Molecule

>  <Prodrug>  (188) 
False

>  <Oral>  (188) 
False

>  <Parenteral>  (188) 
False

>  <Topical>  (188) 
False

>  <Black Box>  (188) 
False

>  <Availability Type>  (188) 
Unknown

>  <Withdrawn Year>  (188) 
nan

>  <Withdrawn Reason>  (188) 
nan

>  <Withdrawn Country>  (188) 
nan

>  <Withdrawn Class>  (188) 
nan

>  <SMILES>  (188) 
COc1cc(F)ccc1-c1c(C)sc2cnc(Nc3cnn(C4CCNCC4)c3)nc12

>  <InChi Key>  (188) 
AVIOBQFPAGEICQ-UHFFFAOYSA-N

$$$$
CHEMBL4297485
     RDKit          2D

 20 22  0  0  0  0  0  0  0  0999 V2000
    3.0000    0.0000    0.0000 C   0  0  0  0  0  0  0  0  0  0  0  0
    1.5000    0.0000    0.0000 C   0  0  0  0  0  0  0  0  0  0  0  0
    0.7500   -1.2990    0.0000 C   0  0  0  0  0  0  0  0  0  0  0  0
   -0.7500   -1.2990    0.0000 C   0  0  0  0  0  0  0  0  0  0  0  0
   -1.5000    0.0000    0.0000 N   0  0  0  0  0  0  0  0  0  0  0  0
   -0.7500    1.2990    0.0000 C   0  0  0  0  0  0  0  0  0  0  0  0
    0.7500    1.2990    0.0000 C   0  0  0  0  0  0  0  0  0  0  0  0
    1.5000    2.5981    0.0000 N   0  0  0  0  0  0  0  0  0  0  0  0
    0.8899    3.9684    0.0000 C   0  0  0  0  0  0  0  0  0  0  0  0
    2.0046    4.9721    0.0000 C   0  0  0  0  0  0  0  0  0  0  0  0
    3.3037    4.2221    0.0000 N   0  0  0  0  0  0  0  0  0  0  0  0
    4.6740    4.8322    0.0000 C   0  0  0  0  0  0  0  0  0  0  0  0
    5.8875    3.9505    0.0000 C   0  0  0  0  0  0  0  0  0  0  0  0
    7.2578    4.5606    0.0000 C   0  0  0  0  0  0  0  0  0  0  0  0
    7.4146    6.0524    0.0000 N   0  0  0  0  0  0  0  0  0  0  0  0
    6.2011    6.9341    0.0000 C   0  0  0  0  0  0  0  0  0  0  0  0
    6.3579    8.4259    0.0000 Cl  0  0  0  0  0  0  0  0  0  0  0  0
    4.8308    6.3240    0.0000 C   0  0  0  0  0  0  0  0  0  0  0  0
    2.9918    2.7549    0.0000 C   0  0  0  0  0  0  0  0  0  0  0  0
    3.9955    1.6402    0.0000 O   0  0  0  0  0  0  0  0  0  0  0  0
  1  2  1  0
  2  3  2  0
  3  4  1  0
  4  5  2  0
  5  6  1  0
  6  7  2  0
  7  8  1  0
  8  9  1  0
  9 10  1  0
 10 11  1  0
 11 12  1  0
 12 13  2  0
 13 14  1  0
 14 15  2  0
 15 16  1  0
 16 17  1  0
 16 18  2  0
 11 19  1  0
 19 20  2  0
  7  2  1  0
 19  8  1  0
 18 12  1  0
M  END
>  <Synonyms>  (189) 
CFG-920|CFG920

>  <Research Codes>  (189) 
CFG-920|CFG920

>  <Phase>  (189) 
1

>  <Applicants>  (189) 
nan

>  <USAN Stem>  (189) 
nan

>  <USAN Year>  (189) 
nan

>  <USAN Stem Definition>  (189) 
nan

>  <USAN Stem Substem>  (189) 
nan

>  <First Approval>  (189) 
nan

>  <ATC Codes>  (189) 
nan

>  <Level 4 ATC Codes>  (189) 
nan

>  <Level 3 ATC Codes>  (189) 
nan

>  <Level 2 ATC Codes>  (189) 
nan

>  <Level 1 ATC Codes>  (189) 
nan

>  <Indication Class>  (189) 
nan

>  <Patent>  (189) 
nan

>  <Drug Type>  (189) 
1:Synthetic Small Molecule

>  <Passes Rule of Five>  (189) 
True

>  <First In Class>  (189) 
False

>  <Chirality>  (189) 
Achiral Molecule

>  <Prodrug>  (189) 
False

>  <Oral>  (189) 
False

>  <Parenteral>  (189) 
False

>  <Topical>  (189) 
False

>  <Black Box>  (189) 
False

>  <Availability Type>  (189) 
Unknown

>  <Withdrawn Year>  (189) 
nan

>  <Withdrawn Reason>  (189) 
nan

>  <Withdrawn Country>  (189) 
nan

>  <Withdrawn Class>  (189) 
nan

>  <SMILES>  (189) 
Cc1ccncc1N1CCN(c2ccnc(Cl)c2)C1=O

>  <InChi Key>  (189) 
ZVIFCOOHWGNPHJ-UHFFFAOYSA-N

$$$$
CHEMBL4297486
     RDKit          2D

 39 43  0  0  0  0  0  0  0  0999 V2000
    8.2500   -6.4952    0.0000 C   0  0  0  0  0  0  0  0  0  0  0  0
    7.5000   -5.1962    0.0000 C   0  0  0  0  0  0  0  0  0  0  0  0
    6.0000   -5.1962    0.0000 C   0  0  0  0  0  0  0  0  0  0  0  0
    5.2500   -6.4952    0.0000 O   0  0  0  0  0  0  0  0  0  0  0  0
    5.2500   -3.8971    0.0000 N   0  0  0  0  0  0  0  0  0  0  0  0
    3.7500   -3.8971    0.0000 C   0  0  0  0  0  0  0  0  0  0  0  0
    3.0000   -5.1962    0.0000 C   0  0  0  0  0  0  0  0  0  0  0  0
    1.5000   -5.1962    0.0000 C   0  0  0  0  0  0  0  0  0  0  0  0
    0.7500   -3.8971    0.0000 C   0  0  0  0  0  0  0  0  0  0  0  0
    1.5000   -2.5981    0.0000 C   0  0  0  0  0  0  0  0  0  0  0  0
    0.7500   -1.2990    0.0000 C   0  0  0  0  0  0  0  0  0  0  0  0
    1.5000    0.0000    0.0000 C   0  0  0  0  0  0  0  0  0  0  0  0
    0.7500    1.2990    0.0000 C   0  0  0  0  0  0  0  0  0  0  0  0
   -0.7500    1.2990    0.0000 C   0  0  0  0  0  0  0  0  0  0  0  0
   -1.5000    0.0000    0.0000 C   0  0  0  0  0  0  0  0  0  0  0  0
   -3.0000    0.0000    0.0000 C   0  0  0  0  0  0  0  0  0  0  0  0
   -3.7500   -1.2990    0.0000 N   0  0  0  0  0  0  0  0  0  0  0  0
   -3.0000   -2.5981    0.0000 C   0  0  0  0  0  0  0  0  0  0  0  0
   -3.7500   -3.8971    0.0000 N   0  0  0  0  0  0  0  0  0  0  0  0
   -5.2500   -3.8971    0.0000 C   0  0  0  0  0  0  0  0  0  0  0  0
   -6.0000   -2.5981    0.0000 C   0  0  0  0  0  0  0  0  0  0  0  0
   -7.5000   -2.5981    0.0000 C   0  0  0  0  0  0  0  0  0  0  0  0
   -8.2500   -3.8971    0.0000 C   0  0  0  0  0  0  0  0  0  0  0  0
   -9.7500   -3.8971    0.0000 N   0  0  0  0  0  0  0  0  0  0  0  0
  -10.5000   -2.5981    0.0000 C   0  0  0  0  0  0  0  0  0  0  0  0
  -12.0000   -2.5981    0.0000 C   0  0  0  0  0  0  0  0  0  0  0  0
  -12.7500   -3.8971    0.0000 N   0  0  0  0  0  0  0  0  0  0  0  0
  -14.2500   -3.8971    0.0000 C   0  0  0  0  0  0  0  0  0  0  0  0
  -15.0000   -2.5981    0.0000 C   0  0  0  0  0  0  0  0  0  0  0  0
  -16.5000   -2.5981    0.0000 O   0  0  0  0  0  0  0  0  0  0  0  0
  -12.0000   -5.1962    0.0000 C   0  0  0  0  0  0  0  0  0  0  0  0
  -10.5000   -5.1962    0.0000 C   0  0  0  0  0  0  0  0  0  0  0  0
   -7.5000   -5.1962    0.0000 C   0  0  0  0  0  0  0  0  0  0  0  0
   -8.2500   -6.4952    0.0000 F   0  0  0  0  0  0  0  0  0  0  0  0
   -6.0000   -5.1962    0.0000 C   0  0  0  0  0  0  0  0  0  0  0  0
   -5.2500   -6.4952    0.0000 F   0  0  0  0  0  0  0  0  0  0  0  0
   -1.5000   -2.5981    0.0000 N   0  0  0  0  0  0  0  0  0  0  0  0
   -0.7500   -1.2990    0.0000 C   0  0  0  0  0  0  0  0  0  0  0  0
    3.0000   -2.5981    0.0000 C   0  0  0  0  0  0  0  0  0  0  0  0
  1  2  2  0
  2  3  1  0
  3  4  2  0
  3  5  1  0
  5  6  1  0
  6  7  2  0
  7  8  1  0
  8  9  2  0
  9 10  1  0
 10 11  1  0
 11 12  2  0
 12 13  1  0
 13 14  2  0
 14 15  1  0
 15 16  2  0
 16 17  1  0
 17 18  1  0
 18 19  2  3
 19 20  1  0
 20 21  2  0
 21 22  1  0
 22 23  2  0
 23 24  1  0
 24 25  1  0
 25 26  1  0
 26 27  1  0
 27 28  1  0
 28 29  1  0
 29 30  1  0
 27 31  1  0
 31 32  1  0
 23 33  1  0
 33 34  1  0
 33 35  2  0
 35 36  1  0
 18 37  1  0
 37 38  2  0
 10 39  2  0
 39  6  1  0
 38 11  1  0
 38 15  1  0
 35 20  1  0
 32 24  1  0
M  END
>  <Synonyms>  (190) 
CK-101|RX-518

>  <Research Codes>  (190) 
CK-101|RX-518

>  <Phase>  (190) 
1

>  <Applicants>  (190) 
nan

>  <USAN Stem>  (190) 
nan

>  <USAN Year>  (190) 
nan

>  <USAN Stem Definition>  (190) 
nan

>  <USAN Stem Substem>  (190) 
nan

>  <First Approval>  (190) 
nan

>  <ATC Codes>  (190) 
nan

>  <Level 4 ATC Codes>  (190) 
nan

>  <Level 3 ATC Codes>  (190) 
nan

>  <Level 2 ATC Codes>  (190) 
nan

>  <Level 1 ATC Codes>  (190) 
nan

>  <Indication Class>  (190) 
nan

>  <Patent>  (190) 
nan

>  <Drug Type>  (190) 
1:Synthetic Small Molecule

>  <Passes Rule of Five>  (190) 
False

>  <First In Class>  (190) 
False

>  <Chirality>  (190) 
Achiral Molecule

>  <Prodrug>  (190) 
False

>  <Oral>  (190) 
False

>  <Parenteral>  (190) 
False

>  <Topical>  (190) 
False

>  <Black Box>  (190) 
False

>  <Availability Type>  (190) 
Unknown

>  <Withdrawn Year>  (190) 
nan

>  <Withdrawn Reason>  (190) 
nan

>  <Withdrawn Country>  (190) 
nan

>  <Withdrawn Class>  (190) 
nan

>  <SMILES>  (190) 
C=CC(=O)Nc1cccc(-c2cccc3cnc(Nc4ccc(N5CCN(CCO)CC5)c(F)c4F)nc23)c1

>  <InChi Key>  (190) 
IDRGFNPZDVBSSE-UHFFFAOYSA-N

$$$$
CHEMBL4297496
     RDKit          2D

 79 83  0  0  0  0  0  0  0  0999 V2000
    6.8660  -36.3731    0.0000 C   0  0  0  0  0  0  0  0  0  0  0  0
    7.6160  -35.0740    0.0000 C   0  0  0  0  0  0  0  0  0  0  0  0
    6.8660  -33.7750    0.0000 C   0  0  0  0  0  0  0  0  0  0  0  0
    7.6160  -32.4760    0.0000 C   0  0  0  0  0  0  0  0  0  0  0  0
    6.8660  -31.1769    0.0000 C   0  0  0  0  0  0  0  0  0  0  0  0
    7.6160  -29.8779    0.0000 C   0  0  0  0  0  0  0  0  0  0  0  0
    6.8660  -28.5788    0.0000 C   0  0  0  0  0  0  0  0  0  0  0  0
    7.6160  -27.2798    0.0000 C   0  0  0  0  0  0  0  0  0  0  0  0
    6.8660  -25.9808    0.0000 C   0  0  0  0  0  0  0  0  0  0  0  0
    7.6160  -24.6817    0.0000 C   0  0  0  0  0  0  0  0  0  0  0  0
    6.8660  -23.3827    0.0000 C   0  0  0  0  0  0  0  0  0  0  0  0
    7.6160  -22.0836    0.0000 C   0  0  0  0  0  0  0  0  0  0  0  0
    6.8660  -20.7846    0.0000 C   0  0  0  0  0  0  0  0  0  0  0  0
    7.6160  -19.4856    0.0000 C   0  0  0  0  0  0  0  0  0  0  0  0
    6.8660  -18.1865    0.0000 C   0  0  0  0  0  0  0  0  0  0  0  0
    7.6160  -16.8875    0.0000 C   0  0  0  0  0  0  0  0  0  0  0  0
    6.8660  -15.5885    0.0000 C   0  0  0  0  0  0  0  0  0  0  0  0
    7.6160  -14.2894    0.0000 C   0  0  0  0  0  0  0  0  0  0  0  0
    9.1160  -14.2894    0.0000 O   0  0  0  0  0  0  0  0  0  0  0  0
    6.8660  -12.9904    0.0000 O   0  0  0  0  0  0  0  0  0  0  0  0
    7.6160  -11.6913    0.0000 C   0  0  0  0  0  0  0  0  0  0  0  0
    6.8660  -10.3923    0.0000 C   0  0  0  0  0  0  0  0  0  0  0  0
    7.6160   -9.0933    0.0000 C   0  0  0  0  0  0  0  0  0  0  0  0
    6.8660   -7.7942    0.0000 S   0  0  0  0  0  0  0  0  0  0  0  0
    7.6160   -6.4952    0.0000 S   0  0  0  0  0  0  0  0  0  0  0  0
    6.8660   -5.1962    0.0000 C   0  0  0  0  0  0  0  0  0  0  0  0
    5.3660   -5.1962    0.0000 C   0  0  0  0  0  0  0  0  0  0  0  0
    4.6160   -3.8971    0.0000 C   0  0  0  0  0  0  0  0  0  0  0  0
    5.3660   -2.5981    0.0000 C   0  0  0  0  0  0  0  0  0  0  0  0
    4.6160   -1.2990    0.0000 C   0  0  0  0  0  0  0  0  0  0  0  0
    3.1160   -1.2990    0.0000 O   0  0  0  0  0  0  0  0  0  0  0  0
    2.3660    0.0000    0.0000 C   0  0  0  0  0  0  0  0  0  0  0  0
    3.1160    1.2990    0.0000 O   0  0  0  0  0  0  0  0  0  0  0  0
    0.8660    0.0000    0.0000 N   0  0  0  0  0  0  0  0  0  0  0  0
   -0.4330    0.7500    0.0000 C   0  0  0  0  0  0  0  0  0  0  0  0
   -1.8596    1.2135    0.0000 C   0  0  0  0  0  0  0  0  0  0  0  0
   -2.7413    0.0000    0.0000 N   0  0  0  0  0  0  0  0  0  0  0  0
   -4.1679   -0.4635    0.0000 C   0  0  0  0  0  0  0  0  0  0  0  0
   -4.1679   -1.9635    0.0000 C   0  0  0  0  0  0  0  0  0  0  0  0
   -5.4669   -2.7135    0.0000 C   0  0  0  0  0  0  0  0  0  0  0  0
   -5.4669   -4.2135    0.0000 O   0  0  0  0  0  0  0  0  0  0  0  0
   -6.7659   -1.9635    0.0000 C   0  0  0  0  0  0  0  0  0  0  0  0
   -8.0650   -2.7135    0.0000 N   0  0  0  0  0  0  0  0  0  0  0  0
   -6.7659   -0.4635    0.0000 C   0  0  0  0  0  0  0  0  0  0  0  0
   -8.0650    0.2865    0.0000 C   0  0  0  0  0  0  0  0  0  0  0  0
   -5.4669    0.2865    0.0000 C   0  0  0  0  0  0  0  0  0  0  0  0
   -5.4669    1.7865    0.0000 O   0  0  0  0  0  0  0  0  0  0  0  0
   -2.7413   -2.4271    0.0000 C   0  0  0  0  0  0  0  0  0  0  0  0
   -2.2777   -3.8536    0.0000 C   0  0  0  0  0  0  0  0  0  0  0  0
   -0.8105   -4.1655    0.0000 O   0  0  0  0  0  0  0  0  0  0  0  0
   -0.3470   -5.5921    0.0000 C   0  0  0  0  0  0  0  0  0  0  0  0
    1.1202   -5.9040    0.0000 N   0  0  0  0  0  0  0  0  0  0  0  0
   -1.3507   -6.7068    0.0000 O   0  0  0  0  0  0  0  0  0  0  0  0
   -1.8596   -1.2135    0.0000 C   0  0  0  0  0  0  0  0  0  0  0  0
   -0.9779   -2.4271    0.0000 O   0  0  0  0  0  0  0  0  0  0  0  0
    0.5139   -2.2703    0.0000 C   0  0  0  0  0  0  0  0  0  0  0  0
   -0.4330   -0.7500    0.0000 C   0  0  0  0  0  0  0  0  0  0  0  0
    6.8660   -2.5981    0.0000 C   0  0  0  0  0  0  0  0  0  0  0  0
    7.6160   -3.8971    0.0000 C   0  0  0  0  0  0  0  0  0  0  0  0
    5.3660  -10.3923    0.0000 O   0  0  0  0  0  0  0  0  0  0  0  0
    4.6160  -11.6913    0.0000 C   0  0  0  0  0  0  0  0  0  0  0  0
    5.3660  -12.9904    0.0000 O   0  0  0  0  0  0  0  0  0  0  0  0
    3.1160  -11.6913    0.0000 C   0  0  0  0  0  0  0  0  0  0  0  0
    2.3660  -12.9904    0.0000 C   0  0  0  0  0  0  0  0  0  0  0  0
    0.8660  -12.9904    0.0000 C   0  0  0  0  0  0  0  0  0  0  0  0
    0.1160  -14.2894    0.0000 C   0  0  0  0  0  0  0  0  0  0  0  0
   -1.3840  -14.2894    0.0000 C   0  0  0  0  0  0  0  0  0  0  0  0
   -2.1340  -15.5885    0.0000 C   0  0  0  0  0  0  0  0  0  0  0  0
   -3.6340  -15.5885    0.0000 C   0  0  0  0  0  0  0  0  0  0  0  0
   -4.3840  -16.8875    0.0000 C   0  0  0  0  0  0  0  0  0  0  0  0
   -5.8840  -16.8875    0.0000 C   0  0  0  0  0  0  0  0  0  0  0  0
   -6.6340  -18.1865    0.0000 C   0  0  0  0  0  0  0  0  0  0  0  0
   -8.1340  -18.1865    0.0000 C   0  0  0  0  0  0  0  0  0  0  0  0
   -8.8840  -19.4856    0.0000 C   0  0  0  0  0  0  0  0  0  0  0  0
  -10.3840  -19.4856    0.0000 C   0  0  0  0  0  0  0  0  0  0  0  0
  -11.1340  -20.7846    0.0000 C   0  0  0  0  0  0  0  0  0  0  0  0
  -12.6340  -20.7846    0.0000 C   0  0  0  0  0  0  0  0  0  0  0  0
  -13.3840  -22.0836    0.0000 C   0  0  0  0  0  0  0  0  0  0  0  0
  -14.8840  -22.0836    0.0000 C   0  0  0  0  0  0  0  0  0  0  0  0
  1  2  1  0
  2  3  1  0
  3  4  1  0
  4  5  1  0
  5  6  1  0
  6  7  1  0
  7  8  1  0
  8  9  1  0
  9 10  1  0
 10 11  1  0
 11 12  1  0
 12 13  1  0
 13 14  1  0
 14 15  1  0
 15 16  1  0
 16 17  1  0
 17 18  1  0
 18 19  2  0
 18 20  1  0
 20 21  1  0
 21 22  1  0
 22 23  1  0
 23 24  1  0
 24 25  1  0
 25 26  1  0
 26 27  2  0
 27 28  1  0
 28 29  2  0
 29 30  1  0
 30 31  1  0
 31 32  1  0
 32 33  2  0
 32 34  1  0
 34 35  1  0
 35 36  1  6
 36 37  1  0
 37 38  1  0
 38 39  2  0
 39 40  1  0
 40 41  1  0
 40 42  2  0
 42 43  1  0
 42 44  1  0
 44 45  1  0
 44 46  2  0
 46 47  1  0
 39 48  1  0
 48 49  2  3
 49 50  1  0
 50 51  1  0
 51 52  1  0
 51 53  2  0
 48 54  1  0
 54 55  1  1
 55 56  1  0
 54 57  1  0
 29 58  1  0
 58 59  2  0
 22 60  1  0
 60 61  1  0
 61 62  2  0
 61 63  1  0
 63 64  1  0
 64 65  1  0
 65 66  1  0
 66 67  1  0
 67 68  1  0
 68 69  1  0
 69 70  1  0
 70 71  1  0
 71 72  1  0
 72 73  1  0
 73 74  1  0
 74 75  1  0
 75 76  1  0
 76 77  1  0
 77 78  1  0
 78 79  1  0
 59 26  1  0
 57 34  1  6
 57 35  1  0
 54 37  1  0
 46 38  1  0
M  END
>  <Synonyms>  (191) 
JNJ-27548547|PROMITIL

>  <Research Codes>  (191) 
JNJ-27548547

>  <Phase>  (191) 
1

>  <Applicants>  (191) 
nan

>  <USAN Stem>  (191) 
nan

>  <USAN Year>  (191) 
nan

>  <USAN Stem Definition>  (191) 
nan

>  <USAN Stem Substem>  (191) 
nan

>  <First Approval>  (191) 
nan

>  <ATC Codes>  (191) 
nan

>  <Level 4 ATC Codes>  (191) 
nan

>  <Level 3 ATC Codes>  (191) 
nan

>  <Level 2 ATC Codes>  (191) 
nan

>  <Level 1 ATC Codes>  (191) 
nan

>  <Indication Class>  (191) 
nan

>  <Patent>  (191) 
nan

>  <Drug Type>  (191) 
7:Natural Product-derived

>  <Passes Rule of Five>  (191) 
False

>  <First In Class>  (191) 
False

>  <Chirality>  (191) 
Racemic Mixture

>  <Prodrug>  (191) 
False

>  <Oral>  (191) 
False

>  <Parenteral>  (191) 
False

>  <Topical>  (191) 
False

>  <Black Box>  (191) 
False

>  <Availability Type>  (191) 
Unknown

>  <Withdrawn Year>  (191) 
nan

>  <Withdrawn Reason>  (191) 
nan

>  <Withdrawn Country>  (191) 
nan

>  <Withdrawn Class>  (191) 
nan

>  <SMILES>  (191) 
CCCCCCCCCCCCCCCCCC(=O)OCC(CSSc1ccc(COC(=O)N2[C@H]3CN4C5=C(C(=O)C(N)=C(C)C5=O)[C@@H](COC(N)=O)[C@@]4(OC)[C@H]32)cc1)OC(=O)CCCCCCCCCCCCCCCCC

>  <InChi Key>  (191) 
IXNRUNFNQIYEIF-TZFSNAKKSA-N

$$$$
CHEMBL4297542
     RDKit          2D

 31 34  0  0  0  0  0  0  0  0999 V2000
   -0.1497  -13.0411    0.0000 C   0  0  0  0  0  0  0  0  0  0  0  0
    0.0071  -11.5493    0.0000 C   0  0  0  0  0  0  0  0  0  0  0  0
   -1.2064  -10.6676    0.0000 C   0  0  0  0  0  0  0  0  0  0  0  0
    1.3774  -10.9392    0.0000 O   0  0  0  0  0  0  0  0  0  0  0  0
    1.5342   -9.4474    0.0000 C   0  0  0  0  0  0  0  0  0  0  0  0
    0.3207   -8.5658    0.0000 N   0  0  0  0  0  0  0  0  0  0  0  0
    0.4775   -7.0740    0.0000 C   0  0  0  0  0  0  0  0  0  0  0  0
    1.8478   -6.4639    0.0000 C   0  0  0  0  0  0  0  0  0  0  0  0
    2.0046   -4.9721    0.0000 C   0  0  0  0  0  0  0  0  0  0  0  0
    0.8899   -3.9684    0.0000 N   0  0  0  0  0  0  0  0  0  0  0  0
    1.5000   -2.5981    0.0000 C   0  0  0  0  0  0  0  0  0  0  0  0
    0.7500   -1.2990    0.0000 C   0  0  0  0  0  0  0  0  0  0  0  0
    1.5000    0.0000    0.0000 C   0  0  0  0  0  0  0  0  0  0  0  0
    0.7500    1.2990    0.0000 C   0  0  0  0  0  0  0  0  0  0  0  0
   -0.7500    1.2990    0.0000 C   0  0  0  0  0  0  0  0  0  0  0  0
   -1.5000    0.0000    0.0000 C   0  0  0  0  0  0  0  0  0  0  0  0
   -0.7500   -1.2990    0.0000 C   0  0  0  0  0  0  0  0  0  0  0  0
   -1.7537   -2.4138    0.0000 C   0  0  0  0  0  0  0  0  0  0  0  0
   -3.1240   -1.8037    0.0000 C   0  0  0  0  0  0  0  0  0  0  0  0
   -2.9672   -0.3119    0.0000 N   0  0  0  0  0  0  0  0  0  0  0  0
   -4.0819    0.6918    0.0000 C   0  0  0  0  0  0  0  0  0  0  0  0
   -5.5085    0.2283    0.0000 C   0  0  0  0  0  0  0  0  0  0  0  0
   -6.6232    1.2320    0.0000 C   0  0  0  0  0  0  0  0  0  0  0  0
   -8.0498    0.7685    0.0000 C   0  0  0  0  0  0  0  0  0  0  0  0
   -9.1645    1.7722    0.0000 O   0  0  0  0  0  0  0  0  0  0  0  0
   -8.3617   -0.6987    0.0000 O   0  0  0  0  0  0  0  0  0  0  0  0
    2.9918   -2.7549    0.0000 N   0  0  0  0  0  0  0  0  0  0  0  0
    3.3037   -4.2221    0.0000 O   0  0  0  0  0  0  0  0  0  0  0  0
    3.0613   -7.3456    0.0000 C   0  0  0  0  0  0  0  0  0  0  0  0
    2.9046   -8.8373    0.0000 C   0  0  0  0  0  0  0  0  0  0  0  0
    4.1181   -9.7190    0.0000 Cl  0  0  0  0  0  0  0  0  0  0  0  0
  1  2  1  0
  2  3  1  0
  2  4  1  0
  4  5  1  0
  5  6  2  0
  6  7  1  0
  7  8  2  0
  8  9  1  0
  9 10  2  0
 10 11  1  0
 11 12  1  0
 12 13  2  0
 13 14  1  0
 14 15  2  0
 15 16  1  0
 16 17  2  0
 17 18  1  0
 18 19  2  0
 19 20  1  0
 20 21  1  0
 21 22  1  0
 22 23  1  0
 23 24  1  0
 24 25  2  0
 24 26  1  0
 11 27  2  0
 27 28  1  0
  8 29  1  0
 29 30  2  0
 30 31  1  0
 30  5  1  0
 28  9  1  0
 17 12  1  0
 20 16  1  0
M  END
>  <Synonyms>  (192) 
GSK-2018682|GSK2018682

>  <Research Codes>  (192) 
GSK2018682

>  <Phase>  (192) 
1

>  <Applicants>  (192) 
nan

>  <USAN Stem>  (192) 
nan

>  <USAN Year>  (192) 
nan

>  <USAN Stem Definition>  (192) 
nan

>  <USAN Stem Substem>  (192) 
nan

>  <First Approval>  (192) 
nan

>  <ATC Codes>  (192) 
nan

>  <Level 4 ATC Codes>  (192) 
nan

>  <Level 3 ATC Codes>  (192) 
nan

>  <Level 2 ATC Codes>  (192) 
nan

>  <Level 1 ATC Codes>  (192) 
nan

>  <Indication Class>  (192) 
nan

>  <Patent>  (192) 
nan

>  <Drug Type>  (192) 
1:Synthetic Small Molecule

>  <Passes Rule of Five>  (192) 
False

>  <First In Class>  (192) 
False

>  <Chirality>  (192) 
Achiral Molecule

>  <Prodrug>  (192) 
False

>  <Oral>  (192) 
False

>  <Parenteral>  (192) 
False

>  <Topical>  (192) 
False

>  <Black Box>  (192) 
False

>  <Availability Type>  (192) 
Unknown

>  <Withdrawn Year>  (192) 
nan

>  <Withdrawn Reason>  (192) 
nan

>  <Withdrawn Country>  (192) 
nan

>  <Withdrawn Class>  (192) 
nan

>  <SMILES>  (192) 
CC(C)Oc1ncc(-c2nc(-c3cccc4c3ccn4CCCC(=O)O)no2)cc1Cl

>  <InChi Key>  (192) 
NFIGDBFIDKDNIG-UHFFFAOYSA-N

$$$$
CHEMBL4297641
     RDKit          2D

 30 32  0  0  0  0  0  0  0  0999 V2000
    1.5000   -7.7942    0.0000 C   0  0  0  0  0  0  0  0  0  0  0  0
    0.7500   -6.4952    0.0000 C   0  0  0  0  0  0  0  0  0  0  0  0
    1.5000   -5.1962    0.0000 N   0  0  0  0  0  0  0  0  0  0  0  0
    0.7500   -3.8971    0.0000 N   0  0  0  0  0  0  0  0  0  0  0  0
    1.5000   -2.5981    0.0000 C   0  0  0  0  0  0  0  0  0  0  0  0
    3.0000   -2.5981    0.0000 O   0  0  0  0  0  0  0  0  0  0  0  0
    0.7500   -1.2990    0.0000 C   0  0  0  0  0  0  0  0  0  0  0  0
    1.5000    0.0000    0.0000 C   0  0  0  0  0  0  0  0  0  0  0  0
    0.7500    1.2990    0.0000 C   0  0  0  0  0  0  0  0  0  0  0  0
   -0.7500    1.2990    0.0000 C   0  0  0  0  0  0  0  0  0  0  0  0
   -1.5000    0.0000    0.0000 C   0  0  0  0  0  0  0  0  0  0  0  0
   -3.0000    0.0000    0.0000 S   0  0  0  0  0  0  0  0  0  0  0  0
   -3.0000    1.5000    0.0000 O   0  0  0  0  0  0  0  0  0  0  0  0
   -3.0000   -1.5000    0.0000 O   0  0  0  0  0  0  0  0  0  0  0  0
   -4.5000    0.0000    0.0000 N   0  0  0  0  0  0  0  0  0  0  0  0
   -5.2500    1.2990    0.0000 C   0  0  0  0  0  0  0  0  0  0  0  0
   -6.7500    1.2990    0.0000 C   0  0  0  0  0  0  0  0  0  0  0  0
   -7.5000    0.0000    0.0000 N   0  0  0  0  0  0  0  0  0  0  0  0
   -9.0000    0.0000    0.0000 C   0  0  0  0  0  0  0  0  0  0  0  0
   -6.7500   -1.2990    0.0000 C   0  0  0  0  0  0  0  0  0  0  0  0
   -5.2500   -1.2990    0.0000 C   0  0  0  0  0  0  0  0  0  0  0  0
   -0.7500   -1.2990    0.0000 C   0  0  0  0  0  0  0  0  0  0  0  0
   -0.7500   -6.4952    0.0000 C   0  0  0  0  0  0  0  0  0  0  0  0
   -1.5000   -5.1962    0.0000 C   0  0  0  0  0  0  0  0  0  0  0  0
   -3.0000   -5.1962    0.0000 C   0  0  0  0  0  0  0  0  0  0  0  0
   -3.7500   -3.8971    0.0000 Cl  0  0  0  0  0  0  0  0  0  0  0  0
   -3.7500   -6.4952    0.0000 C   0  0  0  0  0  0  0  0  0  0  0  0
   -3.0000   -7.7942    0.0000 C   0  0  0  0  0  0  0  0  0  0  0  0
   -1.5000   -7.7942    0.0000 C   0  0  0  0  0  0  0  0  0  0  0  0
   -0.7500   -9.0933    0.0000 O   0  0  0  0  0  0  0  0  0  0  0  0
  1  2  1  0
  2  3  2  3
  3  4  1  0
  4  5  1  0
  5  6  2  0
  5  7  1  0
  7  8  2  0
  8  9  1  0
  9 10  2  0
 10 11  1  0
 11 12  1  0
 12 13  2  0
 12 14  2  0
 12 15  1  0
 15 16  1  0
 16 17  1  0
 17 18  1  0
 18 19  1  0
 18 20  1  0
 20 21  1  0
 11 22  2  0
  2 23  1  0
 23 24  2  0
 24 25  1  0
 25 26  1  0
 25 27  2  0
 27 28  1  0
 28 29  2  0
 29 30  1  0
 22  7  1  0
 29 23  1  0
 21 15  1  0
M  END
>  <Synonyms>  (193) 
SECLIDEMSTAT|SP-2577|SP2577

>  <Research Codes>  (193) 
SP-2577|SP2577

>  <Phase>  (193) 
1

>  <Applicants>  (193) 
nan

>  <USAN Stem>  (193) 
'-stat'

>  <USAN Year>  (193) 
nan

>  <USAN Stem Definition>  (193) 
enzyme inhibitors

>  <USAN Stem Substem>  (193) 
'-stat(-stat)'

>  <First Approval>  (193) 
nan

>  <ATC Codes>  (193) 
nan

>  <Level 4 ATC Codes>  (193) 
nan

>  <Level 3 ATC Codes>  (193) 
nan

>  <Level 2 ATC Codes>  (193) 
nan

>  <Level 1 ATC Codes>  (193) 
nan

>  <Indication Class>  (193) 
nan

>  <Patent>  (193) 
nan

>  <Drug Type>  (193) 
1:Synthetic Small Molecule

>  <Passes Rule of Five>  (193) 
True

>  <First In Class>  (193) 
False

>  <Chirality>  (193) 
Achiral Molecule

>  <Prodrug>  (193) 
False

>  <Oral>  (193) 
False

>  <Parenteral>  (193) 
False

>  <Topical>  (193) 
False

>  <Black Box>  (193) 
False

>  <Availability Type>  (193) 
Unknown

>  <Withdrawn Year>  (193) 
nan

>  <Withdrawn Reason>  (193) 
nan

>  <Withdrawn Country>  (193) 
nan

>  <Withdrawn Class>  (193) 
nan

>  <SMILES>  (193) 
C/C(=N\NC(=O)c1cccc(S(=O)(=O)N2CCN(C)CC2)c1)c1cc(Cl)ccc1O

>  <InChi Key>  (193) 
MVSQDUZRRVBYLA-UHFFFAOYSA-N

$$$$
CHEMBL4297448
     RDKit          2D

 30 34  0  0  0  0  0  0  0  0999 V2000
    1.5000    0.0000    0.0000 C   0  0  0  0  0  0  0  0  0  0  0  0
    0.7500   -1.2990    0.0000 C   0  0  0  0  0  0  0  0  0  0  0  0
   -0.7500   -1.2990    0.0000 C   0  0  0  0  0  0  0  0  0  0  0  0
   -1.5000    0.0000    0.0000 C   0  0  0  0  0  0  0  0  0  0  0  0
   -3.0000    0.0000    0.0000 C   0  0  0  0  0  0  0  0  0  0  0  0
   -3.7500    1.2990    0.0000 C   0  0  0  0  0  0  0  0  0  0  0  0
   -5.2500    1.2990    0.0000 C   0  0  0  0  0  0  0  0  0  0  0  0
   -6.0000    2.5981    0.0000 C   0  0  0  0  0  0  0  0  0  0  0  0
   -5.2500    3.8971    0.0000 C   0  0  0  0  0  0  0  0  0  0  0  0
   -6.0000    5.1962    0.0000 C   0  0  0  0  0  0  0  0  0  0  0  0
   -7.5000    5.1962    0.0000 N   0  0  0  0  0  0  0  0  0  0  0  0
   -8.2500    3.8971    0.0000 C   0  0  0  0  0  0  0  0  0  0  0  0
   -7.5000    2.5981    0.0000 C   0  0  0  0  0  0  0  0  0  0  0  0
   -6.0000    0.0000    0.0000 C   0  0  0  0  0  0  0  0  0  0  0  0
   -7.5000    0.0000    0.0000 N   0  0  0  0  0  0  0  0  0  0  0  0
   -8.2500    1.2990    0.0000 C   0  0  0  0  0  0  0  0  0  0  0  0
   -9.7500    1.2990    0.0000 C   0  0  0  0  0  0  0  0  0  0  0  0
  -10.5000   -0.0000    0.0000 N   0  0  0  0  0  0  0  0  0  0  0  0
  -12.0000   -0.0000    0.0000 C   0  0  0  0  0  0  0  0  0  0  0  0
  -12.7500    1.2990    0.0000 N   0  0  0  0  0  0  0  0  0  0  0  0
  -14.2500    1.2990    0.0000 C   0  0  0  0  0  0  0  0  0  0  0  0
  -15.0000   -0.0000    0.0000 C   0  0  0  0  0  0  0  0  0  0  0  0
  -14.2500   -1.2990    0.0000 C   0  0  0  0  0  0  0  0  0  0  0  0
  -12.7500   -1.2990    0.0000 N   0  0  0  0  0  0  0  0  0  0  0  0
   -9.7500   -1.2990    0.0000 C   0  0  0  0  0  0  0  0  0  0  0  0
   -8.2500   -1.2990    0.0000 C   0  0  0  0  0  0  0  0  0  0  0  0
   -5.2500   -1.2990    0.0000 N   0  0  0  0  0  0  0  0  0  0  0  0
   -3.7500   -1.2990    0.0000 N   0  0  0  0  0  0  0  0  0  0  0  0
   -0.7500    1.2990    0.0000 C   0  0  0  0  0  0  0  0  0  0  0  0
    0.7500    1.2990    0.0000 C   0  0  0  0  0  0  0  0  0  0  0  0
  1  2  2  0
  2  3  1  0
  3  4  2  0
  4  5  1  0
  5  6  2  0
  6  7  1  0
  7  8  1  0
  8  9  2  0
  9 10  1  0
 10 11  2  0
 11 12  1  0
 12 13  2  0
  7 14  2  0
 14 15  1  0
 15 16  1  0
 16 17  1  0
 17 18  1  0
 18 19  1  0
 19 20  2  0
 20 21  1  0
 21 22  2  0
 22 23  1  0
 23 24  2  0
 18 25  1  0
 25 26  1  0
 14 27  1  0
 27 28  2  0
  4 29  1  0
 29 30  2  0
 30  1  1  0
 28  5  1  0
 13  8  1  0
 26 15  1  0
 24 19  1  0
M  END
>  <Synonyms>  (194) 
MW-01-6-189WH|MW-189|MW01-6-189WH|TT-301|TT301

>  <Research Codes>  (194) 
MW-01-6-189WH|MW-189|MW01-6-189WH|TT301

>  <Phase>  (194) 
1

>  <Applicants>  (194) 
nan

>  <USAN Stem>  (194) 
nan

>  <USAN Year>  (194) 
nan

>  <USAN Stem Definition>  (194) 
nan

>  <USAN Stem Substem>  (194) 
nan

>  <First Approval>  (194) 
nan

>  <ATC Codes>  (194) 
nan

>  <Level 4 ATC Codes>  (194) 
nan

>  <Level 3 ATC Codes>  (194) 
nan

>  <Level 2 ATC Codes>  (194) 
nan

>  <Level 1 ATC Codes>  (194) 
nan

>  <Indication Class>  (194) 
nan

>  <Patent>  (194) 
nan

>  <Drug Type>  (194) 
1:Synthetic Small Molecule

>  <Passes Rule of Five>  (194) 
True

>  <First In Class>  (194) 
False

>  <Chirality>  (194) 
Achiral Molecule

>  <Prodrug>  (194) 
False

>  <Oral>  (194) 
False

>  <Parenteral>  (194) 
False

>  <Topical>  (194) 
False

>  <Black Box>  (194) 
False

>  <Availability Type>  (194) 
Unknown

>  <Withdrawn Year>  (194) 
nan

>  <Withdrawn Reason>  (194) 
nan

>  <Withdrawn Country>  (194) 
nan

>  <Withdrawn Class>  (194) 
nan

>  <SMILES>  (194) 
c1ccc(-c2cc(-c3ccncc3)c(N3CCN(c4ncccn4)CC3)nn2)cc1

>  <InChi Key>  (194) 
ZPJGUEPHFXPAQF-UHFFFAOYSA-N

$$$$
CHEMBL4297449
     RDKit          2D

 31 34  0  0  0  0  0  0  0  0999 V2000
    6.3019    5.8189    0.0000 C   0  0  0  0  0  0  0  0  0  0  0  0
    4.8187    6.0424    0.0000 C   0  0  0  0  0  0  0  0  0  0  0  0
    4.2707    7.4388    0.0000 C   0  0  0  0  0  0  0  0  0  0  0  0
    3.8835    4.8697    0.0000 N   0  0  0  0  0  0  0  0  0  0  0  0
    4.4315    3.4734    0.0000 C   0  0  0  0  0  0  0  0  0  0  0  0
    3.4962    2.3006    0.0000 C   0  0  0  0  0  0  0  0  0  0  0  0
    2.0130    2.5242    0.0000 C   0  0  0  0  0  0  0  0  0  0  0  0
    1.0777    1.3515    0.0000 N   0  0  0  0  0  0  0  0  0  0  0  0
    1.7286    0.0000    0.0000 C   0  0  0  0  0  0  0  0  0  0  0  0
    1.0777   -1.3515    0.0000 C   0  0  0  0  0  0  0  0  0  0  0  0
   -0.3846   -1.6852    0.0000 C   0  0  0  0  0  0  0  0  0  0  0  0
   -1.5574   -0.7500    0.0000 N   0  0  0  0  0  0  0  0  0  0  0  0
   -2.9088   -1.4008    0.0000 C   0  0  0  0  0  0  0  0  0  0  0  0
   -4.1482   -0.5558    0.0000 C   0  0  0  0  0  0  0  0  0  0  0  0
   -5.4997   -1.2067    0.0000 C   0  0  0  0  0  0  0  0  0  0  0  0
   -5.6118   -2.7025    0.0000 C   0  0  0  0  0  0  0  0  0  0  0  0
   -4.3724   -3.5475    0.0000 C   0  0  0  0  0  0  0  0  0  0  0  0
   -4.4845   -5.0433    0.0000 C   0  0  0  0  0  0  0  0  0  0  0  0
   -3.2451   -5.8882    0.0000 O   0  0  0  0  0  0  0  0  0  0  0  0
   -5.8359   -5.6941    0.0000 N   0  0  0  0  0  0  0  0  0  0  0  0
   -5.9480   -7.1899    0.0000 C   0  0  0  0  0  0  0  0  0  0  0  0
   -7.2995   -7.8407    0.0000 C   0  0  0  0  0  0  0  0  0  0  0  0
   -7.4116   -9.3365    0.0000 C   0  0  0  0  0  0  0  0  0  0  0  0
   -6.1722  -10.1815    0.0000 N   0  0  0  0  0  0  0  0  0  0  0  0
   -4.8208   -9.5307    0.0000 C   0  0  0  0  0  0  0  0  0  0  0  0
   -4.7087   -8.0349    0.0000 C   0  0  0  0  0  0  0  0  0  0  0  0
   -3.0209   -2.8966    0.0000 N   0  0  0  0  0  0  0  0  0  0  0  0
   -1.5574    0.7500    0.0000 C   0  0  0  0  0  0  0  0  0  0  0  0
   -0.3846    1.6852    0.0000 C   0  0  0  0  0  0  0  0  0  0  0  0
    1.4650    3.9205    0.0000 C   0  0  0  0  0  0  0  0  0  0  0  0
    2.4002    5.0933    0.0000 C   0  0  0  0  0  0  0  0  0  0  0  0
  1  2  1  0
  2  3  1  0
  2  4  1  0
  4  5  1  0
  5  6  1  0
  6  7  1  0
  7  8  1  0
  8  9  1  0
  9 10  1  0
 10 11  1  0
 11 12  1  0
 12 13  1  0
 13 14  2  0
 14 15  1  0
 15 16  2  0
 16 17  1  0
 17 18  1  0
 18 19  2  0
 18 20  1  0
 20 21  2  3
 21 22  1  0
 22 23  2  0
 23 24  1  0
 24 25  1  0
 25 26  2  0
 17 27  2  0
 12 28  1  0
 28 29  1  0
  7 30  1  0
 30 31  1  0
 31  4  1  0
 29  8  1  0
 27 13  1  0
 26 21  1  0
M  END
>  <Synonyms>  (195) 
USL 311|USL-311|USL311

>  <Research Codes>  (195) 
USL311

>  <Phase>  (195) 
1

>  <Applicants>  (195) 
nan

>  <USAN Stem>  (195) 
nan

>  <USAN Year>  (195) 
nan

>  <USAN Stem Definition>  (195) 
nan

>  <USAN Stem Substem>  (195) 
nan

>  <First Approval>  (195) 
nan

>  <ATC Codes>  (195) 
nan

>  <Level 4 ATC Codes>  (195) 
nan

>  <Level 3 ATC Codes>  (195) 
nan

>  <Level 2 ATC Codes>  (195) 
nan

>  <Level 1 ATC Codes>  (195) 
nan

>  <Indication Class>  (195) 
nan

>  <Patent>  (195) 
nan

>  <Drug Type>  (195) 
1:Synthetic Small Molecule

>  <Passes Rule of Five>  (195) 
True

>  <First In Class>  (195) 
False

>  <Chirality>  (195) 
Achiral Molecule

>  <Prodrug>  (195) 
False

>  <Oral>  (195) 
False

>  <Parenteral>  (195) 
False

>  <Topical>  (195) 
False

>  <Black Box>  (195) 
False

>  <Availability Type>  (195) 
Unknown

>  <Withdrawn Year>  (195) 
nan

>  <Withdrawn Reason>  (195) 
nan

>  <Withdrawn Country>  (195) 
nan

>  <Withdrawn Class>  (195) 
nan

>  <SMILES>  (195) 
CC(C)N1CCC(N2CCCN(c3cccc(C(=O)Nc4ccncc4)n3)CC2)CC1

>  <InChi Key>  (195) 
XNUNVQKARNSSEO-UHFFFAOYSA-N

$$$$
CHEMBL4297489
     RDKit          2D

 30 33  0  0  0  0  0  0  0  0999 V2000
   -1.7455   -2.9392    0.0000 C   0  0  0  0  0  0  0  0  0  0  0  0
   -0.7418   -4.0539    0.0000 C   0  0  0  0  0  0  0  0  0  0  0  0
   -1.0537   -5.5211    0.0000 N   0  0  0  0  0  0  0  0  0  0  0  0
    0.2454   -6.2711    0.0000 N   0  0  0  0  0  0  0  0  0  0  0  0
    0.4022   -7.7629    0.0000 C   0  0  0  0  0  0  0  0  0  0  0  0
    1.3601   -5.2674    0.0000 C   0  0  0  0  0  0  0  0  0  0  0  0
    0.7500   -3.8971    0.0000 C   0  0  0  0  0  0  0  0  0  0  0  0
    1.5000   -2.5981    0.0000 C   0  0  0  0  0  0  0  0  0  0  0  0
    0.7500   -1.2990    0.0000 N   0  0  0  0  0  0  0  0  0  0  0  0
    1.5000    0.0000    0.0000 C   0  0  0  0  0  0  0  0  0  0  0  0
    0.7500    1.2990    0.0000 C   0  0  0  0  0  0  0  0  0  0  0  0
   -0.7500    1.2990    0.0000 C   0  0  0  0  0  0  0  0  0  0  0  0
   -1.5000    2.5981    0.0000 C   0  0  0  0  0  0  0  0  0  0  0  0
   -0.7500    3.8971    0.0000 C   0  0  0  0  0  0  0  0  0  0  0  0
   -1.5000    5.1962    0.0000 C   0  0  0  0  0  0  0  0  0  0  0  0
   -3.0000    5.1962    0.0000 C   0  0  0  0  0  0  0  0  0  0  0  0
   -3.7500    6.4952    0.0000 C   0  0  0  0  0  0  0  0  0  0  0  0
   -5.2500    6.4952    0.0000 O   0  0  0  0  0  0  0  0  0  0  0  0
   -3.0000    7.7942    0.0000 N   0  0  0  0  0  0  0  0  0  0  0  0
   -3.7500    9.0933    0.0000 C   0  0  0  0  0  0  0  0  0  0  0  0
   -3.0000   10.3923    0.0000 C   0  0  0  0  0  0  0  0  0  0  0  0
   -3.7500   11.6913    0.0000 C   0  0  0  0  0  0  0  0  0  0  0  0
   -5.2500   11.6913    0.0000 C   0  0  0  0  0  0  0  0  0  0  0  0
   -6.0000   10.3923    0.0000 C   0  0  0  0  0  0  0  0  0  0  0  0
   -5.2500    9.0933    0.0000 C   0  0  0  0  0  0  0  0  0  0  0  0
   -6.0000    7.7942    0.0000 N   0  0  0  0  0  0  0  0  0  0  0  0
   -3.7500    3.8971    0.0000 C   0  0  0  0  0  0  0  0  0  0  0  0
   -3.0000    2.5981    0.0000 C   0  0  0  0  0  0  0  0  0  0  0  0
   -1.5000    0.0000    0.0000 C   0  0  0  0  0  0  0  0  0  0  0  0
   -0.7500   -1.2990    0.0000 C   0  0  0  0  0  0  0  0  0  0  0  0
  1  2  1  0
  2  3  2  0
  3  4  1  0
  4  5  1  0
  4  6  1  0
  6  7  2  0
  7  8  1  0
  8  9  1  0
  9 10  1  0
 10 11  1  0
 11 12  1  0
 12 13  1  0
 13 14  2  0
 14 15  1  0
 15 16  2  0
 16 17  1  0
 17 18  2  0
 17 19  1  0
 19 20  1  0
 20 21  2  0
 21 22  1  0
 22 23  2  0
 23 24  1  0
 24 25  2  0
 25 26  1  0
 16 27  1  0
 27 28  2  0
 12 29  1  0
 29 30  1  0
  7  2  1  0
 30  9  1  0
 28 13  1  0
 25 20  1  0
M  END
>  <Synonyms>  (196) 
CXD-101|CXD101

>  <Research Codes>  (196) 
CXD-101|CXD101

>  <Phase>  (196) 
1

>  <Applicants>  (196) 
nan

>  <USAN Stem>  (196) 
nan

>  <USAN Year>  (196) 
nan

>  <USAN Stem Definition>  (196) 
nan

>  <USAN Stem Substem>  (196) 
nan

>  <First Approval>  (196) 
nan

>  <ATC Codes>  (196) 
nan

>  <Level 4 ATC Codes>  (196) 
nan

>  <Level 3 ATC Codes>  (196) 
nan

>  <Level 2 ATC Codes>  (196) 
nan

>  <Level 1 ATC Codes>  (196) 
nan

>  <Indication Class>  (196) 
nan

>  <Patent>  (196) 
nan

>  <Drug Type>  (196) 
1:Synthetic Small Molecule

>  <Passes Rule of Five>  (196) 
True

>  <First In Class>  (196) 
False

>  <Chirality>  (196) 
Achiral Molecule

>  <Prodrug>  (196) 
False

>  <Oral>  (196) 
False

>  <Parenteral>  (196) 
False

>  <Topical>  (196) 
False

>  <Black Box>  (196) 
False

>  <Availability Type>  (196) 
Unknown

>  <Withdrawn Year>  (196) 
nan

>  <Withdrawn Reason>  (196) 
nan

>  <Withdrawn Country>  (196) 
nan

>  <Withdrawn Class>  (196) 
nan

>  <SMILES>  (196) 
Cc1nn(C)cc1CN1CCC(c2ccc(C(=O)Nc3ccccc3N)cc2)CC1

>  <InChi Key>  (196) 
JHDZMASHNBKTPS-UHFFFAOYSA-N

$$$$
CHEMBL4301163
     RDKit          2D

 37 39  0  0  0  0  0  0  0  0999 V2000
    7.5000    2.5981    0.0000 C   0  0  0  0  0  0  0  0  0  0  0  0
    6.7500    1.2990    0.0000 C   0  0  0  0  0  0  0  0  0  0  0  0
    5.2500    1.2990    0.0000 C   0  0  0  0  0  0  0  0  0  0  0  0
    4.5000    2.5981    0.0000 O   0  0  0  0  0  0  0  0  0  0  0  0
    4.5000    0.0000    0.0000 N   0  0  0  0  0  0  0  0  0  0  0  0
    3.0000    0.0000    0.0000 S   0  0  0  0  0  0  0  0  0  0  0  0
    3.0000   -1.5000    0.0000 O   0  0  0  0  0  0  0  0  0  0  0  0
    3.0000    1.5000    0.0000 O   0  0  0  0  0  0  0  0  0  0  0  0
    1.5000    0.0000    0.0000 C   0  0  0  0  0  0  0  0  0  0  0  0
    0.7500   -1.2990    0.0000 C   0  0  0  0  0  0  0  0  0  0  0  0
   -0.7500   -1.2990    0.0000 C   0  0  0  0  0  0  0  0  0  0  0  0
   -1.5000    0.0000    0.0000 C   0  0  0  0  0  0  0  0  0  0  0  0
   -3.0000    0.0000    0.0000 N   0  0  0  0  0  0  0  0  0  0  0  0
   -3.7500    1.2990    0.0000 C   0  0  0  0  0  0  0  0  0  0  0  0
   -3.0000    2.5981    0.0000 O   0  0  0  0  0  0  0  0  0  0  0  0
   -5.2500    1.2990    0.0000 C   0  0  0  0  0  0  0  0  0  0  0  0
   -6.0000    2.5981    0.0000 C   0  0  0  0  0  0  0  0  0  0  0  0
   -5.2500    3.8971    0.0000 C   0  0  0  0  0  0  0  0  0  0  0  0
   -6.0000    5.1962    0.0000 C   0  0  0  0  0  0  0  0  0  0  0  0
   -7.5000    5.1962    0.0000 C   0  0  0  0  0  0  0  0  0  0  0  0
   -8.2500    6.4952    0.0000 Br  0  0  0  0  0  0  0  0  0  0  0  0
   -8.2500    3.8971    0.0000 C   0  0  0  0  0  0  0  0  0  0  0  0
   -9.7500    3.8971    0.0000 O   0  0  0  0  0  0  0  0  0  0  0  0
  -10.5000    2.5981    0.0000 C   0  0  0  0  0  0  0  0  0  0  0  0
  -12.0000    2.5981    0.0000 C   0  0  0  0  0  0  0  0  0  0  0  0
  -12.7500    1.2990    0.0000 C   0  0  0  0  0  0  0  0  0  0  0  0
  -14.2500    1.2990    0.0000 Cl  0  0  0  0  0  0  0  0  0  0  0  0
  -12.0000    0.0000    0.0000 C   0  0  0  0  0  0  0  0  0  0  0  0
  -10.5000    0.0000    0.0000 C   0  0  0  0  0  0  0  0  0  0  0  0
   -9.7500   -1.2990    0.0000 C   0  0  0  0  0  0  0  0  0  0  0  0
   -9.0000   -2.5981    0.0000 N   0  0  0  0  0  0  0  0  0  0  0  0
   -9.7500    1.2990    0.0000 C   0  0  0  0  0  0  0  0  0  0  0  0
   -7.5000    2.5981    0.0000 C   0  0  0  0  0  0  0  0  0  0  0  0
   -8.2500    1.2990    0.0000 F   0  0  0  0  0  0  0  0  0  0  0  0
   -0.7500    1.2990    0.0000 C   0  0  0  0  0  0  0  0  0  0  0  0
   -1.5000    2.5981    0.0000 Cl  0  0  0  0  0  0  0  0  0  0  0  0
    0.7500    1.2990    0.0000 C   0  0  0  0  0  0  0  0  0  0  0  0
  1  2  1  0
  2  3  1  0
  3  4  2  0
  3  5  1  0
  5  6  1  0
  6  7  2  0
  6  8  2  0
  6  9  1  0
  9 10  2  0
 10 11  1  0
 11 12  2  0
 12 13  1  0
 13 14  1  0
 14 15  2  0
 14 16  1  0
 16 17  1  0
 17 18  2  0
 18 19  1  0
 19 20  2  0
 20 21  1  0
 20 22  1  0
 22 23  1  0
 23 24  1  0
 24 25  2  0
 25 26  1  0
 26 27  1  0
 26 28  2  0
 28 29  1  0
 29 30  1  0
 30 31  3  0
 29 32  2  0
 22 33  2  0
 33 34  1  0
 12 35  1  0
 35 36  1  0
 35 37  2  0
 37  9  1  0
 33 17  1  0
 32 24  1  0
M  END
>  <Synonyms>  (197) 
nan

>  <Research Codes>  (197) 
nan

>  <Phase>  (197) 
1

>  <Applicants>  (197) 
nan

>  <USAN Stem>  (197) 
'-vir-'

>  <USAN Year>  (197) 
nan

>  <USAN Stem Definition>  (197) 
antivirals: non-nucleoside reverse transcriptase inhibitors, not benzoxazinone derivatives

>  <USAN Stem Substem>  (197) 
'-vir-(-vir- (-virine))'

>  <First Approval>  (197) 
nan

>  <ATC Codes>  (197) 
nan

>  <Level 4 ATC Codes>  (197) 
nan

>  <Level 3 ATC Codes>  (197) 
nan

>  <Level 2 ATC Codes>  (197) 
nan

>  <Level 1 ATC Codes>  (197) 
nan

>  <Indication Class>  (197) 
nan

>  <Patent>  (197) 
nan

>  <Drug Type>  (197) 
1:Synthetic Small Molecule

>  <Passes Rule of Five>  (197) 
False

>  <First In Class>  (197) 
False

>  <Chirality>  (197) 
Achiral Molecule

>  <Prodrug>  (197) 
False

>  <Oral>  (197) 
False

>  <Parenteral>  (197) 
False

>  <Topical>  (197) 
False

>  <Black Box>  (197) 
False

>  <Availability Type>  (197) 
Unknown

>  <Withdrawn Year>  (197) 
nan

>  <Withdrawn Reason>  (197) 
nan

>  <Withdrawn Country>  (197) 
nan

>  <Withdrawn Class>  (197) 
nan

>  <SMILES>  (197) 
CCC(=O)NS(=O)(=O)c1ccc(NC(=O)Cc2ccc(Br)c(Oc3cc(Cl)cc(C#N)c3)c2F)c(Cl)c1

>  <InChi Key>  (197) 
ULTDEARCBRNRGR-UHFFFAOYSA-N

$$$$
CHEMBL4297295
     RDKit          2D

 47 52  0  0  0  0  0  0  0  0999 V2000
    3.8971   -7.3573    0.0000 O   0  0  0  0  0  0  0  0  0  0  0  0
    2.5981   -8.1073    0.0000 C   0  0  0  0  0  0  0  0  0  0  0  0
    2.5981   -9.6073    0.0000 N   0  0  0  0  0  0  0  0  0  0  0  0
    3.8971  -10.3573    0.0000 C   0  0  0  0  0  0  0  0  0  0  0  0
    3.8971  -11.8573    0.0000 C   0  0  0  0  0  0  0  0  0  0  0  0
    2.5981  -12.6073    0.0000 C   0  0  0  0  0  0  0  0  0  0  0  0
    2.5981  -14.1073    0.0000 C   0  0  0  0  0  0  0  0  0  0  0  0
    3.8971  -14.8573    0.0000 C   0  0  0  0  0  0  0  0  0  0  0  0
    3.8971  -16.3573    0.0000 O   0  0  0  0  0  0  0  0  0  0  0  0
    5.1962  -17.1073    0.0000 C   0  0  0  0  0  0  0  0  0  0  0  0
    6.4952  -17.8573    0.0000 F   0  0  0  0  0  0  0  0  0  0  0  0
    4.4462  -18.4063    0.0000 F   0  0  0  0  0  0  0  0  0  0  0  0
    5.9462  -15.8083    0.0000 F   0  0  0  0  0  0  0  0  0  0  0  0
    5.1962  -14.1073    0.0000 C   0  0  0  0  0  0  0  0  0  0  0  0
    6.4952  -14.8573    0.0000 F   0  0  0  0  0  0  0  0  0  0  0  0
    5.1962  -12.6073    0.0000 C   0  0  0  0  0  0  0  0  0  0  0  0
    1.2990   -7.3573    0.0000 C   0  0  0  0  0  0  0  0  0  0  0  0
    1.2990   -5.8573    0.0000 C   0  0  0  0  0  0  0  0  0  0  0  0
    0.0000   -5.1073    0.0000 N   0  0  0  0  0  0  0  0  0  0  0  0
    0.0000   -3.6073    0.0000 C   0  0  0  0  0  0  0  0  0  0  0  0
    1.2135   -2.7256    0.0000 N   0  0  0  0  0  0  0  0  0  0  0  0
    0.7500   -1.2990    0.0000 C   0  0  0  0  0  0  0  0  0  0  0  0
    1.5000    0.0000    0.0000 N   0  0  0  0  0  0  0  0  0  0  0  0
    0.7500    1.2990    0.0000 C   0  0  0  0  0  0  0  0  0  0  0  0
    1.5000    2.5981    0.0000 C   0  0  0  0  0  0  0  0  0  0  0  0
    1.5000    4.0981    0.0000 C   0  0  0  0  0  0  0  0  0  0  0  0
    2.7990    3.3481    0.0000 C   0  0  0  0  0  0  0  0  0  0  0  0
   -0.7500    1.2990    0.0000 N   0  0  0  0  0  0  0  0  0  0  0  0
   -1.5000    0.0000    0.0000 C   0  0  0  0  0  0  0  0  0  0  0  0
   -0.7500   -1.2990    0.0000 C   0  0  0  0  0  0  0  0  0  0  0  0
   -1.2135   -2.7256    0.0000 S   0  0  0  0  0  0  0  0  0  0  0  0
   -1.2990   -5.8573    0.0000 C   0  0  0  0  0  0  0  0  0  0  0  0
   -1.2990   -7.3573    0.0000 C   0  0  0  0  0  0  0  0  0  0  0  0
    0.0000   -8.1073    0.0000 N   0  0  0  0  0  0  0  0  0  0  0  0
    0.0000   -9.6073    0.0000 S   0  0  0  0  0  0  0  0  0  0  0  0
    1.5000   -9.6073    0.0000 O   0  0  0  0  0  0  0  0  0  0  0  0
   -1.5000   -9.6073    0.0000 O   0  0  0  0  0  0  0  0  0  0  0  0
    0.0000  -11.1073    0.0000 C   0  0  0  0  0  0  0  0  0  0  0  0
   -1.2990  -11.8573    0.0000 C   0  0  0  0  0  0  0  0  0  0  0  0
   -1.2990  -13.3573    0.0000 C   0  0  0  0  0  0  0  0  0  0  0  0
   -0.0000  -14.1073    0.0000 C   0  0  0  0  0  0  0  0  0  0  0  0
   -0.0000  -15.6073    0.0000 C   0  0  0  0  0  0  0  0  0  0  0  0
   -0.0000  -17.1073    0.0000 F   0  0  0  0  0  0  0  0  0  0  0  0
   -1.5000  -15.6073    0.0000 F   0  0  0  0  0  0  0  0  0  0  0  0
    1.5000  -15.6073    0.0000 F   0  0  0  0  0  0  0  0  0  0  0  0
    1.2990  -13.3573    0.0000 C   0  0  0  0  0  0  0  0  0  0  0  0
    1.2990  -11.8573    0.0000 C   0  0  0  0  0  0  0  0  0  0  0  0
  1  2  2  0
  2  3  1  0
  3  4  1  0
  4  5  1  0
  5  6  2  0
  6  7  1  0
  7  8  2  0
  8  9  1  0
  9 10  1  0
 10 11  1  0
 10 12  1  0
 10 13  1  0
  8 14  1  0
 14 15  1  0
 14 16  2  0
  2 17  1  0
 17 18  1  0
 18 19  1  0
 19 20  1  0
 20 21  2  0
 21 22  1  0
 22 23  2  0
 23 24  1  0
 24 25  1  0
 25 26  1  0
 26 27  1  0
 24 28  2  0
 28 29  1  0
 29 30  2  0
 30 31  1  0
 19 32  1  0
 32 33  1  0
 33 34  1  0
 34 35  1  0
 35 36  2  0
 35 37  2  0
 35 38  1  0
 38 39  2  0
 39 40  1  0
 40 41  2  0
 41 42  1  0
 42 43  1  0
 42 44  1  0
 42 45  1  0
 41 46  1  0
 46 47  2  0
 16  5  1  0
 34 17  1  0
 47 38  1  0
 31 20  1  0
 30 22  1  0
 27 25  1  0
M  END
>  <Synonyms>  (198) 
JTK-853

>  <Research Codes>  (198) 
nan

>  <Phase>  (198) 
1

>  <Applicants>  (198) 
nan

>  <USAN Stem>  (198) 
nan

>  <USAN Year>  (198) 
nan

>  <USAN Stem Definition>  (198) 
nan

>  <USAN Stem Substem>  (198) 
nan

>  <First Approval>  (198) 
nan

>  <ATC Codes>  (198) 
nan

>  <Level 4 ATC Codes>  (198) 
nan

>  <Level 3 ATC Codes>  (198) 
nan

>  <Level 2 ATC Codes>  (198) 
nan

>  <Level 1 ATC Codes>  (198) 
nan

>  <Indication Class>  (198) 
nan

>  <Patent>  (198) 
nan

>  <Drug Type>  (198) 
1:Synthetic Small Molecule

>  <Passes Rule of Five>  (198) 
False

>  <First In Class>  (198) 
False

>  <Chirality>  (198) 
Single Stereoisomer

>  <Prodrug>  (198) 
False

>  <Oral>  (198) 
False

>  <Parenteral>  (198) 
False

>  <Topical>  (198) 
False

>  <Black Box>  (198) 
False

>  <Availability Type>  (198) 
Unknown

>  <Withdrawn Year>  (198) 
nan

>  <Withdrawn Reason>  (198) 
nan

>  <Withdrawn Country>  (198) 
nan

>  <Withdrawn Class>  (198) 
nan

>  <SMILES>  (198) 
O=C(NCc1ccc(OC(F)(F)F)c(F)c1)[C@H]1CN(c2nc3nc(C4CC4)ncc3s2)CCN1S(=O)(=O)c1ccc(C(F)(F)F)cc1

>  <InChi Key>  (198) 
JQLOVYLALGSISI-UHFFFAOYSA-N

$$$$
CHEMBL346631
     RDKit          2D

 39 44  0  0  0  0  0  0  0  0999 V2000
   -6.8523  -11.3480    0.0000 C   0  0  0  0  0  0  0  0  0  0  0  0
   -5.3851  -11.6598    0.0000 C   0  0  0  0  0  0  0  0  0  0  0  0
   -4.9216  -13.0864    0.0000 C   0  0  0  0  0  0  0  0  0  0  0  0
   -4.3814  -10.5451    0.0000 O   0  0  0  0  0  0  0  0  0  0  0  0
   -2.9142  -10.8570    0.0000 C   0  0  0  0  0  0  0  0  0  0  0  0
   -1.9105   -9.7423    0.0000 C   0  0  0  0  0  0  0  0  0  0  0  0
   -0.4433  -10.0541    0.0000 C   0  0  0  0  0  0  0  0  0  0  0  0
    0.5604   -8.9394    0.0000 C   0  0  0  0  0  0  0  0  0  0  0  0
    0.0969   -7.5128    0.0000 C   0  0  0  0  0  0  0  0  0  0  0  0
   -1.3703   -7.2010    0.0000 C   0  0  0  0  0  0  0  0  0  0  0  0
   -2.3740   -8.3157    0.0000 C   0  0  0  0  0  0  0  0  0  0  0  0
   -1.5271   -5.7092    0.0000 C   0  0  0  0  0  0  0  0  0  0  0  0
   -2.7406   -4.8275    0.0000 C   0  0  0  0  0  0  0  0  0  0  0  0
   -2.5838   -3.3357    0.0000 C   0  0  0  0  0  0  0  0  0  0  0  0
   -1.2135   -2.7256    0.0000 C   0  0  0  0  0  0  0  0  0  0  0  0
    0.0000   -3.6073    0.0000 C   0  0  0  0  0  0  0  0  0  0  0  0
   -0.1568   -5.0991    0.0000 C   0  0  0  0  0  0  0  0  0  0  0  0
    0.8469   -6.2138    0.0000 N   0  0  0  0  0  0  0  0  0  0  0  0
    2.3387   -6.0570    0.0000 C   0  0  0  0  0  0  0  0  0  0  0  0
    3.2204   -7.2705    0.0000 C   0  0  0  0  0  0  0  0  0  0  0  0
    4.7121   -7.1137    0.0000 C   0  0  0  0  0  0  0  0  0  0  0  0
    5.5938   -8.3273    0.0000 O   0  0  0  0  0  0  0  0  0  0  0  0
    7.0856   -8.1705    0.0000 C   0  0  0  0  0  0  0  0  0  0  0  0
    7.6957   -6.8002    0.0000 O   0  0  0  0  0  0  0  0  0  0  0  0
    7.9673   -9.3840    0.0000 C   0  0  0  0  0  0  0  0  0  0  0  0
    9.4591   -9.2272    0.0000 N   0  0  0  0  0  0  0  0  0  0  0  0
   10.3407  -10.4407    0.0000 C   0  0  0  0  0  0  0  0  0  0  0  0
   10.0692   -7.8569    0.0000 C   0  0  0  0  0  0  0  0  0  0  0  0
    1.2135   -2.7256    0.0000 C   0  0  0  0  0  0  0  0  0  0  0  0
    0.7500   -1.2990    0.0000 C   0  0  0  0  0  0  0  0  0  0  0  0
    1.5000    0.0000    0.0000 C   0  0  0  0  0  0  0  0  0  0  0  0
    0.7500    1.2990    0.0000 C   0  0  0  0  0  0  0  0  0  0  0  0
   -0.7500    1.2990    0.0000 C   0  0  0  0  0  0  0  0  0  0  0  0
   -1.5000    0.0000    0.0000 C   0  0  0  0  0  0  0  0  0  0  0  0
   -0.7500   -1.2990    0.0000 C   0  0  0  0  0  0  0  0  0  0  0  0
   -3.9542   -2.7256    0.0000 C   0  0  0  0  0  0  0  0  0  0  0  0
   -4.2660   -1.2584    0.0000 O   0  0  0  0  0  0  0  0  0  0  0  0
   -4.9579   -3.8403    0.0000 N   0  0  0  0  0  0  0  0  0  0  0  0
   -4.2079   -5.1394    0.0000 C   0  0  0  0  0  0  0  0  0  0  0  0
  1  2  1  0
  2  3  1  0
  2  4  1  0
  4  5  1  0
  5  6  1  0
  6  7  2  0
  7  8  1  0
  8  9  2  0
  9 10  1  0
 10 11  2  0
 10 12  1  0
 12 13  2  0
 13 14  1  0
 14 15  2  0
 15 16  1  0
 16 17  2  0
 17 18  1  0
 18 19  1  0
 19 20  1  0
 20 21  1  0
 21 22  1  0
 22 23  1  0
 23 24  2  0
 23 25  1  0
 25 26  1  0
 26 27  1  0
 26 28  1  0
 16 29  1  0
 29 30  1  0
 30 31  2  0
 31 32  1  0
 32 33  2  0
 33 34  1  0
 34 35  2  0
 14 36  1  0
 36 37  2  0
 36 38  1  0
 38 39  1  0
 11  6  1  0
 17 12  1  0
 35 30  1  0
 18  9  1  0
 39 13  1  0
 35 15  1  0
M  END
>  <Synonyms>  (199) 
CEP-7055

>  <Research Codes>  (199) 
CEP-7055

>  <Phase>  (199) 
1

>  <Applicants>  (199) 
nan

>  <USAN Stem>  (199) 
nan

>  <USAN Year>  (199) 
nan

>  <USAN Stem Definition>  (199) 
nan

>  <USAN Stem Substem>  (199) 
nan

>  <First Approval>  (199) 
nan

>  <ATC Codes>  (199) 
nan

>  <Level 4 ATC Codes>  (199) 
nan

>  <Level 3 ATC Codes>  (199) 
nan

>  <Level 2 ATC Codes>  (199) 
nan

>  <Level 1 ATC Codes>  (199) 
nan

>  <Indication Class>  (199) 
nan

>  <Patent>  (199) 
nan

>  <Drug Type>  (199) 
1:Synthetic Small Molecule

>  <Passes Rule of Five>  (199) 
False

>  <First In Class>  (199) 
False

>  <Chirality>  (199) 
Achiral Molecule

>  <Prodrug>  (199) 
True

>  <Oral>  (199) 
False

>  <Parenteral>  (199) 
False

>  <Topical>  (199) 
False

>  <Black Box>  (199) 
False

>  <Availability Type>  (199) 
Unknown

>  <Withdrawn Year>  (199) 
nan

>  <Withdrawn Reason>  (199) 
nan

>  <Withdrawn Country>  (199) 
nan

>  <Withdrawn Class>  (199) 
nan

>  <SMILES>  (199) 
CC(C)OCc1ccc2c(c1)c1c3c(c4c(c1n2CCCOC(=O)CN(C)C)Cc1ccccc1-4)C(=O)NC3

>  <InChi Key>  (199) 
UHEBDUAFKQHUBV-UHFFFAOYSA-N

$$$$
CHEMBL253896
     RDKit          2D

 26 27  0  0  0  0  0  0  0  0999 V2000
    3.7500   -1.2990    0.0000 C   0  0  0  0  0  0  0  0  0  0  0  0
    3.0000    0.0000    0.0000 O   0  0  0  0  0  0  0  0  0  0  0  0
    1.5000    0.0000    0.0000 C   0  0  0  0  0  0  0  0  0  0  0  0
    0.7500   -1.2990    0.0000 C   0  0  0  0  0  0  0  0  0  0  0  0
   -0.7500   -1.2990    0.0000 C   0  0  0  0  0  0  0  0  0  0  0  0
   -1.5000   -2.5981    0.0000 O   0  0  0  0  0  0  0  0  0  0  0  0
   -1.5000    0.0000    0.0000 C   0  0  0  0  0  0  0  0  0  0  0  0
   -3.0000    0.0000    0.0000 C   0  0  0  0  0  0  0  0  0  0  0  0
   -3.7500    1.2990    0.0000 C   0  0  0  0  0  0  0  0  0  0  0  0
   -5.2500    1.2990    0.0000 C   0  0  0  0  0  0  0  0  0  0  0  0
   -6.0000    2.5981    0.0000 C   0  0  0  0  0  0  0  0  0  0  0  0
   -6.0000   -0.0000    0.0000 C   0  0  0  0  0  0  0  0  0  0  0  0
   -0.7500    1.2990    0.0000 C   0  0  0  0  0  0  0  0  0  0  0  0
   -1.5000    2.5981    0.0000 O   0  0  0  0  0  0  0  0  0  0  0  0
    0.7500    1.2990    0.0000 C   0  0  0  0  0  0  0  0  0  0  0  0
    1.5000    2.5981    0.0000 C   0  0  0  0  0  0  0  0  0  0  0  0
    0.7500    3.8971    0.0000 O   0  0  0  0  0  0  0  0  0  0  0  0
    3.0000    2.5981    0.0000 C   0  0  0  0  0  0  0  0  0  0  0  0
    3.7500    3.8971    0.0000 C   0  0  0  0  0  0  0  0  0  0  0  0
    5.2500    3.8971    0.0000 C   0  0  0  0  0  0  0  0  0  0  0  0
    6.0000    2.5981    0.0000 C   0  0  0  0  0  0  0  0  0  0  0  0
    7.5000    2.5981    0.0000 C   0  0  0  0  0  0  0  0  0  0  0  0
    8.2500    3.8971    0.0000 C   0  0  0  0  0  0  0  0  0  0  0  0
    9.7500    3.8971    0.0000 O   0  0  0  0  0  0  0  0  0  0  0  0
    7.5000    5.1962    0.0000 C   0  0  0  0  0  0  0  0  0  0  0  0
    6.0000    5.1962    0.0000 C   0  0  0  0  0  0  0  0  0  0  0  0
  1  2  1  0
  2  3  1  0
  3  4  2  0
  4  5  1  0
  5  6  1  0
  5  7  2  0
  7  8  1  0
  8  9  1  0
  9 10  2  3
 10 11  1  0
 10 12  1  0
  7 13  1  0
 13 14  1  0
 13 15  2  0
 15 16  1  0
 16 17  2  0
 16 18  1  0
 18 19  2  3
 19 20  1  0
 20 21  2  0
 21 22  1  0
 22 23  2  0
 23 24  1  0
 23 25  1  0
 25 26  2  0
 15  3  1  0
 26 20  1  0
M  END
>  <Synonyms>  (200) 
XANTHOHUMOL

>  <Research Codes>  (200) 
nan

>  <Phase>  (200) 
1

>  <Applicants>  (200) 
nan

>  <USAN Stem>  (200) 
nan

>  <USAN Year>  (200) 
nan

>  <USAN Stem Definition>  (200) 
nan

>  <USAN Stem Substem>  (200) 
nan

>  <First Approval>  (200) 
nan

>  <ATC Codes>  (200) 
nan

>  <Level 4 ATC Codes>  (200) 
nan

>  <Level 3 ATC Codes>  (200) 
nan

>  <Level 2 ATC Codes>  (200) 
nan

>  <Level 1 ATC Codes>  (200) 
nan

>  <Indication Class>  (200) 
nan

>  <Patent>  (200) 
nan

>  <Drug Type>  (200) 
1:Synthetic Small Molecule

>  <Passes Rule of Five>  (200) 
True

>  <First In Class>  (200) 
False

>  <Chirality>  (200) 
Achiral Molecule

>  <Prodrug>  (200) 
False

>  <Oral>  (200) 
False

>  <Parenteral>  (200) 
False

>  <Topical>  (200) 
False

>  <Black Box>  (200) 
False

>  <Availability Type>  (200) 
Unknown

>  <Withdrawn Year>  (200) 
nan

>  <Withdrawn Reason>  (200) 
nan

>  <Withdrawn Country>  (200) 
nan

>  <Withdrawn Class>  (200) 
nan

>  <SMILES>  (200) 
COc1cc(O)c(CC=C(C)C)c(O)c1C(=O)/C=C/c1ccc(O)cc1

>  <InChi Key>  (200) 
ORXQGKIUCDPEAJ-UHFFFAOYSA-N

$$$$
CHEMBL2152922
     RDKit          2D

 31 35  0  0  0  0  0  0  0  0999 V2000
   -8.5910   -4.5833    0.0000 O   0  0  0  0  0  0  0  0  0  0  0  0
   -9.7730   -5.5068    0.0000 C   0  0  0  0  0  0  0  0  0  0  0  0
   -8.6583   -6.5105    0.0000 C   0  0  0  0  0  0  0  0  0  0  0  0
   -7.2317   -6.0469    0.0000 N   0  0  0  0  0  0  0  0  0  0  0  0
   -6.1170   -7.0506    0.0000 C   0  0  0  0  0  0  0  0  0  0  0  0
   -4.6904   -6.5871    0.0000 C   0  0  0  0  0  0  0  0  0  0  0  0
   -4.3786   -5.1199    0.0000 C   0  0  0  0  0  0  0  0  0  0  0  0
   -2.9520   -4.6564    0.0000 C   0  0  0  0  0  0  0  0  0  0  0  0
   -2.6401   -3.1891    0.0000 O   0  0  0  0  0  0  0  0  0  0  0  0
   -1.2135   -2.7256    0.0000 C   0  0  0  0  0  0  0  0  0  0  0  0
   -0.0000   -3.6073    0.0000 N   0  0  0  0  0  0  0  0  0  0  0  0
    1.2135   -2.7256    0.0000 O   0  0  0  0  0  0  0  0  0  0  0  0
    0.7500   -1.2990    0.0000 C   0  0  0  0  0  0  0  0  0  0  0  0
    1.5000    0.0000    0.0000 C   0  0  0  0  0  0  0  0  0  0  0  0
    0.7500    1.2990    0.0000 C   0  0  0  0  0  0  0  0  0  0  0  0
   -0.7500    1.2990    0.0000 C   0  0  0  0  0  0  0  0  0  0  0  0
   -1.5000    0.0000    0.0000 C   0  0  0  0  0  0  0  0  0  0  0  0
   -3.0000    0.0000    0.0000 O   0  0  0  0  0  0  0  0  0  0  0  0
   -3.7500    1.2990    0.0000 C   0  0  0  0  0  0  0  0  0  0  0  0
   -5.2418    1.4558    0.0000 C   0  0  0  0  0  0  0  0  0  0  0  0
   -5.5537    2.9231    0.0000 C   0  0  0  0  0  0  0  0  0  0  0  0
   -4.2546    3.6731    0.0000 O   0  0  0  0  0  0  0  0  0  0  0  0
   -3.1399    2.6694    0.0000 C   0  0  0  0  0  0  0  0  0  0  0  0
   -0.7500   -1.2990    0.0000 C   0  0  0  0  0  0  0  0  0  0  0  0
   -5.4933   -4.1162    0.0000 C   0  0  0  0  0  0  0  0  0  0  0  0
   -6.9199   -4.5797    0.0000 C   0  0  0  0  0  0  0  0  0  0  0  0
  -10.5679   -6.7788    0.0000 C   0  0  0  0  0  0  0  0  0  0  0  0
  -12.0670   -6.7265    0.0000 C   0  0  0  0  0  0  0  0  0  0  0  0
  -12.7712   -5.4021    0.0000 O   0  0  0  0  0  0  0  0  0  0  0  0
  -11.9763   -4.1300    0.0000 C   0  0  0  0  0  0  0  0  0  0  0  0
  -10.4772   -4.1824    0.0000 C   0  0  0  0  0  0  0  0  0  0  0  0
  1  2  1  0
  2  3  1  0
  3  4  1  0
  4  5  1  0
  5  6  1  0
  6  7  1  0
  7  8  1  0
  8  9  1  0
  9 10  1  0
 10 11  2  0
 11 12  1  0
 12 13  1  0
 13 14  2  0
 14 15  1  0
 15 16  2  0
 16 17  1  0
 17 18  1  0
 19 18  1  6
 19 20  1  0
 20 21  1  0
 21 22  1  0
 22 23  1  0
 17 24  2  0
  7 25  1  0
 25 26  1  0
  2 27  1  0
 27 28  1  0
 28 29  1  0
 29 30  1  0
 30 31  1  0
 31  2  1  0
 26  4  1  0
 24 10  1  0
 24 13  1  0
 23 19  1  0
M  END
>  <Synonyms>  (201) 
PF-04995274

>  <Research Codes>  (201) 
nan

>  <Phase>  (201) 
1

>  <Applicants>  (201) 
nan

>  <USAN Stem>  (201) 
nan

>  <USAN Year>  (201) 
nan

>  <USAN Stem Definition>  (201) 
nan

>  <USAN Stem Substem>  (201) 
nan

>  <First Approval>  (201) 
nan

>  <ATC Codes>  (201) 
nan

>  <Level 4 ATC Codes>  (201) 
nan

>  <Level 3 ATC Codes>  (201) 
nan

>  <Level 2 ATC Codes>  (201) 
nan

>  <Level 1 ATC Codes>  (201) 
nan

>  <Indication Class>  (201) 
nan

>  <Patent>  (201) 
nan

>  <Drug Type>  (201) 
1:Synthetic Small Molecule

>  <Passes Rule of Five>  (201) 
True

>  <First In Class>  (201) 
False

>  <Chirality>  (201) 
Single Stereoisomer

>  <Prodrug>  (201) 
False

>  <Oral>  (201) 
False

>  <Parenteral>  (201) 
False

>  <Topical>  (201) 
False

>  <Black Box>  (201) 
False

>  <Availability Type>  (201) 
Unknown

>  <Withdrawn Year>  (201) 
nan

>  <Withdrawn Reason>  (201) 
nan

>  <Withdrawn Country>  (201) 
nan

>  <Withdrawn Class>  (201) 
nan

>  <SMILES>  (201) 
OC1(CN2CCC(COc3noc4cccc(O[C@@H]5CCOC5)c34)CC2)CCOCC1

>  <InChi Key>  (201) 
WLLOFQROROXOMO-GOSISDBHSA-N

$$$$
CHEMBL2386558
     RDKit          2D

 28 31  0  0  0  0  0  0  0  0999 V2000
   -1.5000   -6.6962    0.0000 C   0  0  0  0  0  0  0  0  0  0  0  0
   -0.7500   -5.3971    0.0000 N   0  0  0  0  0  0  0  0  0  0  0  0
   -1.5000   -4.0981    0.0000 C   0  0  0  0  0  0  0  0  0  0  0  0
    0.7500   -5.3971    0.0000 C   0  0  0  0  0  0  0  0  0  0  0  0
    1.5000   -6.6962    0.0000 O   0  0  0  0  0  0  0  0  0  0  0  0
    1.5000   -4.0981    0.0000 C   0  0  0  0  0  0  0  0  0  0  0  0
    2.7990   -3.3481    0.0000 C   0  0  0  0  0  0  0  0  0  0  0  0
    1.5000   -2.5981    0.0000 C   0  0  0  0  0  0  0  0  0  0  0  0
    0.7500   -1.2990    0.0000 C   0  0  0  0  0  0  0  0  0  0  0  0
    1.5000    0.0000    0.0000 C   0  0  0  0  0  0  0  0  0  0  0  0
    0.7500    1.2990    0.0000 C   0  0  0  0  0  0  0  0  0  0  0  0
   -0.7500    1.2990    0.0000 C   0  0  0  0  0  0  0  0  0  0  0  0
   -1.5000    2.5981    0.0000 C   0  0  0  0  0  0  0  0  0  0  0  0
   -2.9918    2.7549    0.0000 N   0  0  0  0  0  0  0  0  0  0  0  0
   -3.3037    4.2221    0.0000 C   0  0  0  0  0  0  0  0  0  0  0  0
   -2.0046    4.9721    0.0000 N   0  0  0  0  0  0  0  0  0  0  0  0
   -1.8478    6.4639    0.0000 C   0  0  0  0  0  0  0  0  0  0  0  0
   -0.8899    3.9684    0.0000 C   0  0  0  0  0  0  0  0  0  0  0  0
    0.5773    4.2803    0.0000 S   0  0  0  0  0  0  0  0  0  0  0  0
    1.0409    5.7068    0.0000 C   0  0  0  0  0  0  0  0  0  0  0  0
    2.5081    6.0187    0.0000 C   0  0  0  0  0  0  0  0  0  0  0  0
    2.9716    7.4453    0.0000 C   0  0  0  0  0  0  0  0  0  0  0  0
    1.9679    8.5600    0.0000 C   0  0  0  0  0  0  0  0  0  0  0  0
    2.4314    9.9866    0.0000 Cl  0  0  0  0  0  0  0  0  0  0  0  0
    0.5007    8.2481    0.0000 C   0  0  0  0  0  0  0  0  0  0  0  0
    0.0372    6.8216    0.0000 N   0  0  0  0  0  0  0  0  0  0  0  0
   -1.5000    0.0000    0.0000 C   0  0  0  0  0  0  0  0  0  0  0  0
   -0.7500   -1.2990    0.0000 C   0  0  0  0  0  0  0  0  0  0  0  0
  1  2  1  0
  2  3  1  0
  2  4  1  0
  4  5  2  0
  4  6  1  0
  6  7  1  0
  7  8  1  0
  8  9  1  1
  9 10  2  0
 10 11  1  0
 11 12  2  0
 12 13  1  0
 13 14  1  0
 14 15  2  0
 15 16  1  0
 16 17  1  0
 16 18  1  0
 18 19  1  0
 19 20  1  0
 20 21  2  0
 21 22  1  0
 22 23  2  0
 23 24  1  0
 23 25  1  0
 25 26  2  0
 12 27  1  0
 27 28  2  0
  8  6  1  0
 28  9  1  0
 18 13  2  0
 26 20  1  0
M  END
>  <Synonyms>  (202) 
nan

>  <Research Codes>  (202) 
nan

>  <Phase>  (202) 
1

>  <Applicants>  (202) 
nan

>  <USAN Stem>  (202) 
nan

>  <USAN Year>  (202) 
nan

>  <USAN Stem Definition>  (202) 
nan

>  <USAN Stem Substem>  (202) 
nan

>  <First Approval>  (202) 
nan

>  <ATC Codes>  (202) 
nan

>  <Level 4 ATC Codes>  (202) 
nan

>  <Level 3 ATC Codes>  (202) 
nan

>  <Level 2 ATC Codes>  (202) 
nan

>  <Level 1 ATC Codes>  (202) 
nan

>  <Indication Class>  (202) 
nan

>  <Patent>  (202) 
nan

>  <Drug Type>  (202) 
1:Synthetic Small Molecule

>  <Passes Rule of Five>  (202) 
True

>  <First In Class>  (202) 
False

>  <Chirality>  (202) 
Single Stereoisomer

>  <Prodrug>  (202) 
False

>  <Oral>  (202) 
False

>  <Parenteral>  (202) 
False

>  <Topical>  (202) 
False

>  <Black Box>  (202) 
False

>  <Availability Type>  (202) 
Unknown

>  <Withdrawn Year>  (202) 
nan

>  <Withdrawn Reason>  (202) 
nan

>  <Withdrawn Country>  (202) 
nan

>  <Withdrawn Class>  (202) 
nan

>  <SMILES>  (202) 
CN(C)C(=O)[C@H]1C[C@@H]1c1ccc(-c2ncn(C)c2Sc2ccc(Cl)cn2)cc1

>  <InChi Key>  (202) 
WRBFPGYDKJBYBI-TZHYSIJRSA-N

$$$$
CHEMBL3319236
     RDKit          2D

 42 46  0  0  0  0  0  0  0  0999 V2000
   -3.7500  -22.0836    0.0000 C   0  0  0  0  0  0  0  0  0  0  0  0
   -2.2500  -22.0836    0.0000 O   0  0  0  0  0  0  0  0  0  0  0  0
   -1.5000  -20.7846    0.0000 C   0  0  0  0  0  0  0  0  0  0  0  0
   -2.2500  -19.4856    0.0000 C   0  0  0  0  0  0  0  0  0  0  0  0
   -1.5000  -18.1865    0.0000 C   0  0  0  0  0  0  0  0  0  0  0  0
    0.0000  -18.1865    0.0000 C   0  0  0  0  0  0  0  0  0  0  0  0
    0.7500  -16.8875    0.0000 S   0  0  0  0  0  0  0  0  0  0  0  0
   -0.5490  -16.1375    0.0000 O   0  0  0  0  0  0  0  0  0  0  0  0
    2.0490  -17.6375    0.0000 O   0  0  0  0  0  0  0  0  0  0  0  0
    1.5000  -15.5885    0.0000 N   0  0  0  0  0  0  0  0  0  0  0  0
    0.7500  -14.2894    0.0000 C   0  0  0  0  0  0  0  0  0  0  0  0
    1.5000  -12.9904    0.0000 C   0  0  0  0  0  0  0  0  0  0  0  0
    3.0000  -12.9904    0.0000 N   0  0  0  0  0  0  0  0  0  0  0  0
    3.7500  -11.6913    0.0000 C   0  0  0  0  0  0  0  0  0  0  0  0
    5.2500  -11.6913    0.0000 N   0  0  0  0  0  0  0  0  0  0  0  0
    6.0000  -10.3923    0.0000 C   0  0  0  0  0  0  0  0  0  0  0  0
    7.5000  -10.3923    0.0000 C   0  0  0  0  0  0  0  0  0  0  0  0
    5.2500   -9.0933    0.0000 N   0  0  0  0  0  0  0  0  0  0  0  0
    3.7500   -9.0933    0.0000 C   0  0  0  0  0  0  0  0  0  0  0  0
    3.0000   -7.7942    0.0000 N   0  0  0  0  0  0  0  0  0  0  0  0
    3.7500   -6.4952    0.0000 C   0  0  0  0  0  0  0  0  0  0  0  0
    3.0000   -5.1962    0.0000 C   0  0  0  0  0  0  0  0  0  0  0  0
    1.5000   -5.1962    0.0000 C   0  0  0  0  0  0  0  0  0  0  0  0
    0.7500   -3.8971    0.0000 C   0  0  0  0  0  0  0  0  0  0  0  0
   -0.7500   -3.8971    0.0000 C   0  0  0  0  0  0  0  0  0  0  0  0
   -1.5000   -2.5981    0.0000 C   0  0  0  0  0  0  0  0  0  0  0  0
   -0.7500   -1.2990    0.0000 C   0  0  0  0  0  0  0  0  0  0  0  0
    0.7500   -1.2990    0.0000 C   0  0  0  0  0  0  0  0  0  0  0  0
    1.5000   -2.5981    0.0000 N   0  0  0  0  0  0  0  0  0  0  0  0
    1.5000    0.0000    0.0000 N   0  0  0  0  0  0  0  0  0  0  0  0
    0.7500    1.2990    0.0000 C   0  0  0  0  0  0  0  0  0  0  0  0
   -0.7500    1.2990    0.0000 C   0  0  0  0  0  0  0  0  0  0  0  0
   -1.5000    0.0000    0.0000 C   0  0  0  0  0  0  0  0  0  0  0  0
    0.7500   -6.4952    0.0000 C   0  0  0  0  0  0  0  0  0  0  0  0
    1.5000   -7.7942    0.0000 C   0  0  0  0  0  0  0  0  0  0  0  0
    3.0000  -10.3923    0.0000 C   0  0  0  0  0  0  0  0  0  0  0  0
    1.5000  -10.3923    0.0000 C   0  0  0  0  0  0  0  0  0  0  0  0
   -0.7500  -14.2894    0.0000 C   0  0  0  0  0  0  0  0  0  0  0  0
   -1.5000  -15.5885    0.0000 O   0  0  0  0  0  0  0  0  0  0  0  0
   -1.5000  -12.9904    0.0000 O   0  0  0  0  0  0  0  0  0  0  0  0
    0.7500  -19.4856    0.0000 C   0  0  0  0  0  0  0  0  0  0  0  0
    0.0000  -20.7846    0.0000 C   0  0  0  0  0  0  0  0  0  0  0  0
  1  2  1  0
  2  3  1  0
  3  4  2  0
  4  5  1  0
  5  6  2  0
  6  7  1  0
  7  8  2  0
  7  9  2  0
  7 10  1  0
 10 11  1  0
 11 12  1  0
 12 13  1  0
 13 14  2  3
 14 15  1  0
 15 16  1  0
 16 17  1  0
 16 18  2  0
 18 19  1  0
 19 20  1  0
 20 21  1  0
 21 22  1  0
 22 23  1  0
 23 24  1  0
 24 25  2  0
 25 26  1  0
 26 27  2  0
 27 28  1  0
 28 29  2  0
 28 30  1  0
 30 31  1  0
 31 32  1  0
 32 33  1  0
 23 34  1  0
 34 35  1  0
 19 36  2  0
 36 37  1  0
 11 38  1  0
 38 39  2  0
 38 40  1  0
  6 41  1  0
 41 42  2  0
 42  3  1  0
 36 14  1  0
 35 20  1  0
 29 24  1  0
 33 27  1  0
M  END
>  <Synonyms>  (203) 
GLPG-0187|GLPG0187

>  <Research Codes>  (203) 
GLPG0187

>  <Phase>  (203) 
1

>  <Applicants>  (203) 
nan

>  <USAN Stem>  (203) 
nan

>  <USAN Year>  (203) 
nan

>  <USAN Stem Definition>  (203) 
nan

>  <USAN Stem Substem>  (203) 
nan

>  <First Approval>  (203) 
nan

>  <ATC Codes>  (203) 
nan

>  <Level 4 ATC Codes>  (203) 
nan

>  <Level 3 ATC Codes>  (203) 
nan

>  <Level 2 ATC Codes>  (203) 
nan

>  <Level 1 ATC Codes>  (203) 
nan

>  <Indication Class>  (203) 
nan

>  <Patent>  (203) 
nan

>  <Drug Type>  (203) 
1:Synthetic Small Molecule

>  <Passes Rule of Five>  (203) 
False

>  <First In Class>  (203) 
False

>  <Chirality>  (203) 
Single Stereoisomer

>  <Prodrug>  (203) 
False

>  <Oral>  (203) 
False

>  <Parenteral>  (203) 
False

>  <Topical>  (203) 
False

>  <Black Box>  (203) 
False

>  <Availability Type>  (203) 
Unknown

>  <Withdrawn Year>  (203) 
nan

>  <Withdrawn Reason>  (203) 
nan

>  <Withdrawn Country>  (203) 
nan

>  <Withdrawn Class>  (203) 
nan

>  <SMILES>  (203) 
COc1ccc(S(=O)(=O)N[C@@H](CNc2nc(C)nc(N3CCC(c4ccc5c(n4)NCCC5)CC3)c2C)C(=O)O)cc1

>  <InChi Key>  (203) 
CXHCNOMGODVIKB-UHFFFAOYSA-N

$$$$
CHEMBL4297384
     RDKit          2D

 31 35  0  0  0  0  0  0  0  0999 V2000
    3.5260    1.2990    0.0000 C   0  0  0  0  0  0  0  0  0  0  0  0
    2.7760    0.0000    0.0000 C   0  0  0  0  0  0  0  0  0  0  0  0
    1.2760    0.0000    0.0000 N   0  0  0  0  0  0  0  0  0  0  0  0
    0.3943    1.2135    0.0000 N   0  0  0  0  0  0  0  0  0  0  0  0
   -1.0323    0.7500    0.0000 C   0  0  0  0  0  0  0  0  0  0  0  0
   -1.0323   -0.7500    0.0000 C   0  0  0  0  0  0  0  0  0  0  0  0
   -2.1470   -1.7537    0.0000 C   0  0  0  0  0  0  0  0  0  0  0  0
   -3.5736   -1.2902    0.0000 N   0  0  0  0  0  0  0  0  0  0  0  0
   -3.8855    0.1771    0.0000 C   0  0  0  0  0  0  0  0  0  0  0  0
   -5.3120    0.6406    0.0000 C   0  0  0  0  0  0  0  0  0  0  0  0
   -5.6239    2.1078    0.0000 C   0  0  0  0  0  0  0  0  0  0  0  0
   -4.5092    3.1115    0.0000 O   0  0  0  0  0  0  0  0  0  0  0  0
   -3.0826    2.6480    0.0000 C   0  0  0  0  0  0  0  0  0  0  0  0
   -2.7707    1.1807    0.0000 C   0  0  0  0  0  0  0  0  0  0  0  0
   -1.8351   -3.2209    0.0000 C   0  0  0  0  0  0  0  0  0  0  0  0
   -2.9499   -4.2246    0.0000 C   0  0  0  0  0  0  0  0  0  0  0  0
   -4.4171   -3.9127    0.0000 N   0  0  0  0  0  0  0  0  0  0  0  0
   -5.1671   -5.2118    0.0000 N   0  0  0  0  0  0  0  0  0  0  0  0
   -4.1634   -6.3265    0.0000 C   0  0  0  0  0  0  0  0  0  0  0  0
   -4.4752   -7.7937    0.0000 C   0  0  0  0  0  0  0  0  0  0  0  0
   -5.9018   -8.2572    0.0000 C   0  0  0  0  0  0  0  0  0  0  0  0
   -7.1154   -7.3756    0.0000 S   0  0  0  0  0  0  0  0  0  0  0  0
   -8.3289   -8.2572    0.0000 C   0  0  0  0  0  0  0  0  0  0  0  0
   -9.7555   -7.7937    0.0000 C   0  0  0  0  0  0  0  0  0  0  0  0
   -7.8654   -9.6838    0.0000 N   0  0  0  0  0  0  0  0  0  0  0  0
   -6.3654   -9.6838    0.0000 C   0  0  0  0  0  0  0  0  0  0  0  0
   -5.4837  -10.8974    0.0000 C   0  0  0  0  0  0  0  0  0  0  0  0
   -2.7931   -5.7164    0.0000 O   0  0  0  0  0  0  0  0  0  0  0  0
   -0.4086   -3.6844    0.0000 C   0  0  0  0  0  0  0  0  0  0  0  0
    0.7062   -2.6807    0.0000 N   0  0  0  0  0  0  0  0  0  0  0  0
    0.3943   -1.2135    0.0000 C   0  0  0  0  0  0  0  0  0  0  0  0
  1  2  1  0
  2  3  1  0
  3  4  1  0
  4  5  2  0
  5  6  1  0
  6  7  1  0
  7  8  2  3
  8  9  1  0
  9 10  1  0
 10 11  1  0
 11 12  1  0
 12 13  1  0
 13 14  1  0
  7 15  1  0
 15 16  1  0
 16 17  2  0
 17 18  1  0
 18 19  2  0
 19 20  1  0
 20 21  1  0
 21 22  1  0
 22 23  1  0
 23 24  1  0
 23 25  2  0
 25 26  1  0
 26 27  1  0
 19 28  1  0
 15 29  2  0
 29 30  1  0
 30 31  1  0
 31  3  1  0
 31  6  2  0
 14  9  1  0
 28 16  1  0
 26 21  2  0
M  END
>  <Synonyms>  (204) 
GSK-356278|GSK356278

>  <Research Codes>  (204) 
GSK356278

>  <Phase>  (204) 
1

>  <Applicants>  (204) 
nan

>  <USAN Stem>  (204) 
nan

>  <USAN Year>  (204) 
nan

>  <USAN Stem Definition>  (204) 
nan

>  <USAN Stem Substem>  (204) 
nan

>  <First Approval>  (204) 
nan

>  <ATC Codes>  (204) 
nan

>  <Level 4 ATC Codes>  (204) 
nan

>  <Level 3 ATC Codes>  (204) 
nan

>  <Level 2 ATC Codes>  (204) 
nan

>  <Level 1 ATC Codes>  (204) 
nan

>  <Indication Class>  (204) 
nan

>  <Patent>  (204) 
nan

>  <Drug Type>  (204) 
1:Synthetic Small Molecule

>  <Passes Rule of Five>  (204) 
True

>  <First In Class>  (204) 
False

>  <Chirality>  (204) 
Achiral Molecule

>  <Prodrug>  (204) 
False

>  <Oral>  (204) 
False

>  <Parenteral>  (204) 
False

>  <Topical>  (204) 
False

>  <Black Box>  (204) 
False

>  <Availability Type>  (204) 
Unknown

>  <Withdrawn Year>  (204) 
nan

>  <Withdrawn Reason>  (204) 
nan

>  <Withdrawn Country>  (204) 
nan

>  <Withdrawn Class>  (204) 
nan

>  <SMILES>  (204) 
CCn1ncc2c(NC3CCOCC3)c(-c3nnc(Cc4sc(C)nc4C)o3)cnc21

>  <InChi Key>  (204) 
AWDJJMXJUOHGLC-UHFFFAOYSA-N

$$$$
CHEMBL4297393
     RDKit          2D

 34 35  0  0  0  0  0  0  0  0999 V2000
    5.3444    0.0000    0.0000 C   0  0  0  0  0  0  0  0  0  0  0  0
    3.8444    0.0000    0.0000 C   0  0  0  0  0  0  0  0  0  0  0  0
    3.5517   -1.4712    0.0000 C   0  0  0  0  0  0  0  0  0  0  0  0
    2.7184   -2.7184    0.0000 C   0  0  0  0  0  0  0  0  0  0  0  0
    1.4712   -3.5517    0.0000 C   0  0  0  0  0  0  0  0  0  0  0  0
    2.0452   -4.9376    0.0000 C   0  0  0  0  0  0  0  0  0  0  0  0
    1.1321   -6.1276    0.0000 C   0  0  0  0  0  0  0  0  0  0  0  0
    3.5324   -5.1333    0.0000 C   0  0  0  0  0  0  0  0  0  0  0  0
    4.1064   -6.5192    0.0000 C   0  0  0  0  0  0  0  0  0  0  0  0
    5.5650   -6.8693    0.0000 C   0  0  0  0  0  0  0  0  0  0  0  0
    5.6826   -8.3647    0.0000 C   0  0  0  0  0  0  0  0  0  0  0  0
    6.9616   -9.1485    0.0000 C   0  0  0  0  0  0  0  0  0  0  0  0
    4.2968   -8.9387    0.0000 O   0  0  0  0  0  0  0  0  0  0  0  0
    3.3226   -7.7981    0.0000 N   0  0  0  0  0  0  0  0  0  0  0  0
   -0.0000   -3.8444    0.0000 O   0  0  0  0  0  0  0  0  0  0  0  0
   -1.4712   -3.5517    0.0000 C   0  0  0  0  0  0  0  0  0  0  0  0
   -2.0452   -4.9376    0.0000 O   0  0  0  0  0  0  0  0  0  0  0  0
   -2.7184   -2.7184    0.0000 C   0  0  0  0  0  0  0  0  0  0  0  0
   -3.5517   -1.4712    0.0000 C   0  0  0  0  0  0  0  0  0  0  0  0
   -4.9376   -2.0452    0.0000 O   0  0  0  0  0  0  0  0  0  0  0  0
   -3.8444    0.0000    0.0000 C   0  0  0  0  0  0  0  0  0  0  0  0
   -5.0916   -0.8334    0.0000 C   0  0  0  0  0  0  0  0  0  0  0  0
   -5.0916    0.8334    0.0000 C   0  0  0  0  0  0  0  0  0  0  0  0
   -3.5517    1.4712    0.0000 C   0  0  0  0  0  0  0  0  0  0  0  0
   -4.9376    2.0452    0.0000 O   0  0  0  0  0  0  0  0  0  0  0  0
   -2.7184    2.7184    0.0000 C   0  0  0  0  0  0  0  0  0  0  0  0
   -3.7790    3.7790    0.0000 C   0  0  0  0  0  0  0  0  0  0  0  0
   -1.4712    3.5517    0.0000 C   0  0  0  0  0  0  0  0  0  0  0  0
   -2.0452    4.9376    0.0000 O   0  0  0  0  0  0  0  0  0  0  0  0
    0.0000    3.8444    0.0000 C   0  0  0  0  0  0  0  0  0  0  0  0
    0.0000    5.3444    0.0000 C   0  0  0  0  0  0  0  0  0  0  0  0
    1.4712    3.5517    0.0000 C   0  0  0  0  0  0  0  0  0  0  0  0
    2.7184    2.7184    0.0000 C   0  0  0  0  0  0  0  0  0  0  0  0
    3.5517    1.4712    0.0000 C   0  0  0  0  0  0  0  0  0  0  0  0
  1  2  1  0
  2  3  2  0
  3  4  1  0
  4  5  1  0
  5  6  1  1
  6  7  1  0
  6  8  2  0
  8  9  1  0
  9 10  1  0
 10 11  2  0
 11 12  1  0
 11 13  1  0
 13 14  1  0
  5 15  1  0
 15 16  1  0
 16 17  2  0
 16 18  1  0
 18 19  1  0
 19 20  1  6
 19 21  1  0
 21 22  1  0
 21 23  1  0
 21 24  1  0
 24 25  2  0
 24 26  1  0
 26 27  1  0
 26 28  1  0
 28 29  1  1
 28 30  1  0
 30 31  1  1
 30 32  1  0
 32 33  2  0
 33 34  1  0
 34  2  1  0
 14  9  2  0
M  END
>  <Synonyms>  (205) 
ISO-FLUDELONE|KOSN-1724

>  <Research Codes>  (205) 
nan

>  <Phase>  (205) 
1

>  <Applicants>  (205) 
nan

>  <USAN Stem>  (205) 
nan

>  <USAN Year>  (205) 
nan

>  <USAN Stem Definition>  (205) 
nan

>  <USAN Stem Substem>  (205) 
nan

>  <First Approval>  (205) 
nan

>  <ATC Codes>  (205) 
nan

>  <Level 4 ATC Codes>  (205) 
nan

>  <Level 3 ATC Codes>  (205) 
nan

>  <Level 2 ATC Codes>  (205) 
nan

>  <Level 1 ATC Codes>  (205) 
nan

>  <Indication Class>  (205) 
nan

>  <Patent>  (205) 
nan

>  <Drug Type>  (205) 
7:Natural Product-derived

>  <Passes Rule of Five>  (205) 
True

>  <First In Class>  (205) 
False

>  <Chirality>  (205) 
Single Stereoisomer

>  <Prodrug>  (205) 
False

>  <Oral>  (205) 
False

>  <Parenteral>  (205) 
False

>  <Topical>  (205) 
False

>  <Black Box>  (205) 
False

>  <Availability Type>  (205) 
Unknown

>  <Withdrawn Year>  (205) 
nan

>  <Withdrawn Reason>  (205) 
nan

>  <Withdrawn Country>  (205) 
nan

>  <Withdrawn Class>  (205) 
nan

>  <SMILES>  (205) 
C/C1=C/C[C@@H](/C(C)=C/c2cc(C)on2)OC(=O)C[C@H](O)C(C)(C)C(=O)[C@H](C)[C@@H](O)[C@@H](C)/C=C\C1

>  <InChi Key>  (205) 
JAYGOFBXDFAXBW-XOJDBBPBSA-N

$$$$
CHEMBL4297405
     RDKit          2D

 34 37  0  0  0  0  0  0  0  0999 V2000
   10.3192    0.1869    0.0000 N   0  0  0  0  0  0  0  0  0  0  0  0
    9.1056   -0.6948    0.0000 S   0  0  0  0  0  0  0  0  0  0  0  0
    8.2240    0.5187    0.0000 O   0  0  0  0  0  0  0  0  0  0  0  0
    9.9873   -1.9084    0.0000 O   0  0  0  0  0  0  0  0  0  0  0  0
    7.8921   -1.5765    0.0000 O   0  0  0  0  0  0  0  0  0  0  0  0
    6.5218   -0.9664    0.0000 C   0  0  0  0  0  0  0  0  0  0  0  0
    5.3083   -1.8481    0.0000 C   0  0  0  0  0  0  0  0  0  0  0  0
    3.8817   -1.3846    0.0000 C   0  0  0  0  0  0  0  0  0  0  0  0
    3.0000   -2.5981    0.0000 C   0  0  0  0  0  0  0  0  0  0  0  0
    1.5000   -2.5981    0.0000 N   0  0  0  0  0  0  0  0  0  0  0  0
    0.7500   -1.2990    0.0000 C   0  0  0  0  0  0  0  0  0  0  0  0
    1.5000    0.0000    0.0000 C   0  0  0  0  0  0  0  0  0  0  0  0
    0.7500    1.2990    0.0000 C   0  0  0  0  0  0  0  0  0  0  0  0
   -0.7500    1.2990    0.0000 N   0  0  0  0  0  0  0  0  0  0  0  0
   -1.5000    0.0000    0.0000 C   0  0  0  0  0  0  0  0  0  0  0  0
   -2.9672   -0.3119    0.0000 C   0  0  0  0  0  0  0  0  0  0  0  0
   -3.1240   -1.8037    0.0000 C   0  0  0  0  0  0  0  0  0  0  0  0
   -4.4231   -2.5537    0.0000 C   0  0  0  0  0  0  0  0  0  0  0  0
   -5.7221   -1.8037    0.0000 C   0  0  0  0  0  0  0  0  0  0  0  0
   -7.0211   -2.5537    0.0000 C   0  0  0  0  0  0  0  0  0  0  0  0
   -7.0211   -4.0537    0.0000 C   0  0  0  0  0  0  0  0  0  0  0  0
   -5.7221   -4.8037    0.0000 C   0  0  0  0  0  0  0  0  0  0  0  0
   -5.7221   -6.3037    0.0000 S   0  0  0  0  0  0  0  0  0  0  0  0
   -7.0211   -7.0537    0.0000 C   0  0  0  0  0  0  0  0  0  0  0  0
   -6.2711   -8.3527    0.0000 F   0  0  0  0  0  0  0  0  0  0  0  0
   -7.7711   -5.7546    0.0000 F   0  0  0  0  0  0  0  0  0  0  0  0
   -8.3202   -7.8037    0.0000 F   0  0  0  0  0  0  0  0  0  0  0  0
   -4.4231   -4.0537    0.0000 C   0  0  0  0  0  0  0  0  0  0  0  0
   -1.7537   -2.4138    0.0000 N   0  0  0  0  0  0  0  0  0  0  0  0
   -0.7500   -1.2990    0.0000 N   0  0  0  0  0  0  0  0  0  0  0  0
    3.8817   -3.8116    0.0000 C   0  0  0  0  0  0  0  0  0  0  0  0
    3.4182   -5.2382    0.0000 O   0  0  0  0  0  0  0  0  0  0  0  0
    5.3083   -3.3481    0.0000 C   0  0  0  0  0  0  0  0  0  0  0  0
    6.5218   -4.2298    0.0000 O   0  0  0  0  0  0  0  0  0  0  0  0
  1  2  1  0
  2  3  2  0
  2  4  2  0
  2  5  1  0
  5  6  1  0
  7  6  1  6
  7  8  1  0
  8  9  1  0
  9 10  1  6
 10 11  2  3
 11 12  1  0
 12 13  2  0
 13 14  1  0
 14 15  1  0
 15 16  2  0
 16 17  1  0
 17 18  1  0
 18 19  2  0
 19 20  1  0
 20 21  2  0
 21 22  1  0
 22 23  1  0
 23 24  1  0
 24 25  1  0
 24 26  1  0
 24 27  1  0
 22 28  2  0
 17 29  2  0
 29 30  1  0
  9 31  1  0
 31 32  1  1
 31 33  1  0
 33 34  1  1
 33  7  1  0
 30 11  1  0
 30 15  1  0
 28 18  1  0
M  END
>  <Synonyms>  (206) 
MLN-7243|MLN7243|TAK-243

>  <Research Codes>  (206) 
MLN-7243|MLN7243

>  <Phase>  (206) 
1

>  <Applicants>  (206) 
nan

>  <USAN Stem>  (206) 
nan

>  <USAN Year>  (206) 
nan

>  <USAN Stem Definition>  (206) 
nan

>  <USAN Stem Substem>  (206) 
nan

>  <First Approval>  (206) 
nan

>  <ATC Codes>  (206) 
nan

>  <Level 4 ATC Codes>  (206) 
nan

>  <Level 3 ATC Codes>  (206) 
nan

>  <Level 2 ATC Codes>  (206) 
nan

>  <Level 1 ATC Codes>  (206) 
nan

>  <Indication Class>  (206) 
nan

>  <Patent>  (206) 
nan

>  <Drug Type>  (206) 
1:Synthetic Small Molecule

>  <Passes Rule of Five>  (206) 
False

>  <First In Class>  (206) 
False

>  <Chirality>  (206) 
Single Stereoisomer

>  <Prodrug>  (206) 
False

>  <Oral>  (206) 
False

>  <Parenteral>  (206) 
False

>  <Topical>  (206) 
False

>  <Black Box>  (206) 
False

>  <Availability Type>  (206) 
Unknown

>  <Withdrawn Year>  (206) 
nan

>  <Withdrawn Reason>  (206) 
nan

>  <Withdrawn Country>  (206) 
nan

>  <Withdrawn Class>  (206) 
nan

>  <SMILES>  (206) 
NS(=O)(=O)OC[C@H]1C[C@@H](Nc2ccnc3cc(-c4cccc(SC(F)(F)F)c4)nn23)[C@H](O)[C@@H]1O

>  <InChi Key>  (206) 
VBEKXIGVIUZCNE-DGWLBADLSA-N

$$$$
CHEMBL4297412
     RDKit          2D

 91 99  0  0  0  0  0  0  0  0999 V2000
    9.3326  -20.1201    0.0000 C   0  0  0  0  0  0  0  0  0  0  0  0
   10.6317  -20.8701    0.0000 C   0  0  0  0  0  0  0  0  0  0  0  0
   11.2418  -19.4998    0.0000 C   0  0  0  0  0  0  0  0  0  0  0  0
    9.7500  -22.0836    0.0000 C   0  0  0  0  0  0  0  0  0  0  0  0
    8.2500  -22.0836    0.0000 C   0  0  0  0  0  0  0  0  0  0  0  0
    7.5000  -20.7846    0.0000 C   0  0  0  0  0  0  0  0  0  0  0  0
    6.0000  -20.7846    0.0000 C   0  0  0  0  0  0  0  0  0  0  0  0
    5.2500  -19.4856    0.0000 C   0  0  0  0  0  0  0  0  0  0  0  0
    6.0000  -18.1865    0.0000 O   0  0  0  0  0  0  0  0  0  0  0  0
    5.2500  -16.8875    0.0000 C   0  0  0  0  0  0  0  0  0  0  0  0
    6.0000  -15.5885    0.0000 C   0  0  0  0  0  0  0  0  0  0  0  0
    5.2500  -14.2894    0.0000 C   0  0  0  0  0  0  0  0  0  0  0  0
    3.7500  -14.2894    0.0000 C   0  0  0  0  0  0  0  0  0  0  0  0
    3.0000  -12.9904    0.0000 C   0  0  0  0  0  0  0  0  0  0  0  0
    3.7500  -11.6913    0.0000 C   0  0  0  0  0  0  0  0  0  0  0  0
    3.0000  -10.3923    0.0000 N   0  0  0  0  0  0  0  0  0  0  0  0
    3.7500   -9.0933    0.0000 C   0  0  0  0  0  0  0  0  0  0  0  0
    5.2500   -9.0933    0.0000 O   0  0  0  0  0  0  0  0  0  0  0  0
    3.0000   -7.7942    0.0000 C   0  0  0  0  0  0  0  0  0  0  0  0
    3.7500   -6.4952    0.0000 C   0  0  0  0  0  0  0  0  0  0  0  0
    3.0000   -5.1962    0.0000 C   0  0  0  0  0  0  0  0  0  0  0  0
    1.5000   -5.1962    0.0000 C   0  0  0  0  0  0  0  0  0  0  0  0
    0.7500   -3.8971    0.0000 N   0  0  0  0  0  0  0  0  0  0  0  0
    1.5000   -2.5981    0.0000 C   0  0  0  0  0  0  0  0  0  0  0  0
    0.7500   -1.2990    0.0000 C   0  0  0  0  0  0  0  0  0  0  0  0
    1.5000    0.0000    0.0000 C   0  0  0  0  0  0  0  0  0  0  0  0
    0.7500    1.2990    0.0000 N   0  0  0  0  0  0  0  0  0  0  0  0
   -0.7500    1.2990    0.0000 C   0  0  0  0  0  0  0  0  0  0  0  0
   -1.5000    2.5981    0.0000 N   0  0  0  0  0  0  0  0  0  0  0  0
   -3.0000    2.5981    0.0000 C   0  0  0  0  0  0  0  0  0  0  0  0
   -3.7500    3.8971    0.0000 N   0  0  0  0  0  0  0  0  0  0  0  0
   -3.7500    1.2990    0.0000 N   0  0  0  0  0  0  0  0  0  0  0  0
   -3.0000    0.0000    0.0000 C   0  0  0  0  0  0  0  0  0  0  0  0
   -3.7500   -1.2990    0.0000 O   0  0  0  0  0  0  0  0  0  0  0  0
   -1.5000    0.0000    0.0000 C   0  0  0  0  0  0  0  0  0  0  0  0
   -0.7500   -1.2990    0.0000 N   0  0  0  0  0  0  0  0  0  0  0  0
    0.7500   -6.4952    0.0000 C   0  0  0  0  0  0  0  0  0  0  0  0
    1.5000   -7.7942    0.0000 C   0  0  0  0  0  0  0  0  0  0  0  0
    5.2500  -11.6913    0.0000 C   0  0  0  0  0  0  0  0  0  0  0  0
    6.0000  -10.3923    0.0000 O   0  0  0  0  0  0  0  0  0  0  0  0
    6.0000  -12.9904    0.0000 O   0  0  0  0  0  0  0  0  0  0  0  0
    3.0000  -15.5885    0.0000 C   0  0  0  0  0  0  0  0  0  0  0  0
    3.7500  -16.8875    0.0000 C   0  0  0  0  0  0  0  0  0  0  0  0
    3.7500  -19.4856    0.0000 C   0  0  0  0  0  0  0  0  0  0  0  0
    3.0000  -18.1865    0.0000 C   0  0  0  0  0  0  0  0  0  0  0  0
    1.5000  -18.1865    0.0000 C   0  0  0  0  0  0  0  0  0  0  0  0
    0.7500  -19.4856    0.0000 C   0  0  0  0  0  0  0  0  0  0  0  0
   -0.7418  -19.6424    0.0000 N   0  0  0  0  0  0  0  0  0  0  0  0
   -1.7455  -18.5276    0.0000 C   0  0  0  0  0  0  0  0  0  0  0  0
   -1.2820  -17.1011    0.0000 C   0  0  0  0  0  0  0  0  0  0  0  0
   -2.2856  -15.9863    0.0000 C   0  0  0  0  0  0  0  0  0  0  0  0
   -1.8221  -14.5598    0.0000 C   0  0  0  0  0  0  0  0  0  0  0  0
   -2.8258  -13.4450    0.0000 S   0  0  0  0  0  0  0  0  0  0  0  0
   -1.7111  -12.4413    0.0000 O   0  0  0  0  0  0  0  0  0  0  0  0
   -3.9405  -14.4487    0.0000 O   0  0  0  0  0  0  0  0  0  0  0  0
   -3.8295  -12.3303    0.0000 O   0  0  0  0  0  0  0  0  0  0  0  0
   -1.0537  -21.1096    0.0000 C   0  0  0  0  0  0  0  0  0  0  0  0
   -2.3527  -21.8596    0.0000 C   0  0  0  0  0  0  0  0  0  0  0  0
   -2.3527  -23.3596    0.0000 C   0  0  0  0  0  0  0  0  0  0  0  0
   -1.0537  -24.1096    0.0000 C   0  0  0  0  0  0  0  0  0  0  0  0
   -1.0537  -25.6096    0.0000 S   0  0  0  0  0  0  0  0  0  0  0  0
   -2.5537  -25.6096    0.0000 O   0  0  0  0  0  0  0  0  0  0  0  0
    0.4463  -25.6096    0.0000 O   0  0  0  0  0  0  0  0  0  0  0  0
   -1.0537  -27.1096    0.0000 O   0  0  0  0  0  0  0  0  0  0  0  0
    0.2454  -23.3596    0.0000 C   0  0  0  0  0  0  0  0  0  0  0  0
    0.2454  -21.8596    0.0000 C   0  0  0  0  0  0  0  0  0  0  0  0
    1.3601  -20.8559    0.0000 C   0  0  0  0  0  0  0  0  0  0  0  0
    2.2418  -22.0694    0.0000 C   0  0  0  0  0  0  0  0  0  0  0  0
    2.6591  -20.1059    0.0000 C   0  0  0  0  0  0  0  0  0  0  0  0
    3.0000  -20.7846    0.0000 C   0  0  0  0  0  0  0  0  0  0  0  0
    3.7500  -22.0836    0.0000 C   0  0  0  0  0  0  0  0  0  0  0  0
    5.2500  -22.0836    0.0000 C   0  0  0  0  0  0  0  0  0  0  0  0
   10.6317  -23.2972    0.0000 N   0  0  0  0  0  4  0  0  0  0  0  0
   10.1682  -24.7238    0.0000 C   0  0  0  0  0  0  0  0  0  0  0  0
    8.7009  -25.0356    0.0000 C   0  0  0  0  0  0  0  0  0  0  0  0
    8.2374  -26.4622    0.0000 C   0  0  0  0  0  0  0  0  0  0  0  0
    6.7702  -26.7741    0.0000 C   0  0  0  0  0  0  0  0  0  0  0  0
    6.3067  -28.2007    0.0000 S   0  0  0  0  0  0  0  0  0  0  0  0
    4.8801  -27.7371    0.0000 O   0  0  0  0  0  0  0  0  0  0  0  0
    7.7332  -28.6642    0.0000 O   0  0  0  0  0  0  0  0  0  0  0  0
    5.8431  -29.6272    0.0000 O   0  0  0  0  0  0  0  0  0  0  0  0
   12.0583  -22.8336    0.0000 C   0  0  0  0  0  0  0  0  0  0  0  0
   13.3573  -23.5836    0.0000 C   0  0  0  0  0  0  0  0  0  0  0  0
   14.6563  -22.8336    0.0000 C   0  0  0  0  0  0  0  0  0  0  0  0
   14.6563  -21.3336    0.0000 C   0  0  0  0  0  0  0  0  0  0  0  0
   15.9554  -20.5836    0.0000 S   0  0  0  0  0  0  0  0  0  0  0  0
   16.7054  -21.8827    0.0000 O   0  0  0  0  0  0  0  0  0  0  0  0
   15.2054  -19.2846    0.0000 O   0  0  0  0  0  0  0  0  0  0  0  0
   17.2544  -19.8336    0.0000 O   0  0  0  0  0  1  0  0  0  0  0  0
   13.3573  -20.5836    0.0000 C   0  0  0  0  0  0  0  0  0  0  0  0
   12.0583  -21.3336    0.0000 C   0  0  0  0  0  0  0  0  0  0  0  0
  1  2  1  0
  2  3  1  0
  2  4  1  0
  4  5  1  0
  5  6  2  0
  6  7  1  0
  7  8  2  0
  8  9  1  0
  9 10  1  0
 10 11  2  0
 11 12  1  0
 12 13  2  0
 13 14  1  0
 14 15  1  0
 15 16  1  0
 16 17  1  0
 17 18  2  0
 17 19  1  0
 19 20  2  0
 20 21  1  0
 21 22  2  0
 22 23  1  0
 23 24  1  0
 24 25  1  0
 25 26  2  0
 26 27  1  0
 27 28  2  0
 28 29  1  0
 29 30  1  0
 30 31  2  0
 30 32  1  0
 32 33  1  0
 33 34  2  0
 33 35  1  0
 35 36  2  0
 22 37  1  0
 37 38  2  0
 15 39  1  0
 39 40  2  0
 39 41  1  0
 13 42  1  0
 42 43  2  0
  8 44  1  0
 44 45  2  0
 45 46  1  0
 46 47  2  0
 47 48  1  0
 48 49  1  0
 49 50  1  0
 50 51  1  0
 51 52  1  0
 52 53  1  0
 53 54  2  0
 53 55  2  0
 53 56  1  0
 48 57  1  0
 57 58  2  0
 58 59  1  0
 59 60  2  0
 60 61  1  0
 61 62  2  0
 61 63  2  0
 61 64  1  0
 60 65  1  0
 65 66  2  0
 66 67  1  0
 67 68  1  0
 67 69  1  0
 44 70  1  0
 70 71  1  0
 71 72  1  0
  4 73  2  0
 73 74  1  0
 74 75  1  0
 75 76  1  0
 76 77  1  0
 77 78  1  0
 78 79  2  0
 78 80  2  0
 78 81  1  0
 73 82  1  0
 82 83  2  0
 83 84  1  0
 84 85  2  0
 85 86  1  0
 86 87  2  0
 86 88  2  0
 86 89  1  0
 85 90  1  0
 90 91  2  0
 91  2  1  0
 72  7  1  0
 91 82  1  0
 43 10  1  0
 67 47  1  0
 38 19  1  0
 66 57  1  0
 36 25  1  0
 35 28  1  0
M  CHG  2  73   1  89  -1
M  END
>  <Synonyms>  (207) 
OTL-38|OTL0038

>  <Research Codes>  (207) 
OTL0038

>  <Phase>  (207) 
1

>  <Applicants>  (207) 
nan

>  <USAN Stem>  (207) 
nan

>  <USAN Year>  (207) 
nan

>  <USAN Stem Definition>  (207) 
nan

>  <USAN Stem Substem>  (207) 
nan

>  <First Approval>  (207) 
nan

>  <ATC Codes>  (207) 
nan

>  <Level 4 ATC Codes>  (207) 
nan

>  <Level 3 ATC Codes>  (207) 
nan

>  <Level 2 ATC Codes>  (207) 
nan

>  <Level 1 ATC Codes>  (207) 
nan

>  <Indication Class>  (207) 
nan

>  <Patent>  (207) 
nan

>  <Drug Type>  (207) 
7:Natural Product-derived

>  <Passes Rule of Five>  (207) 
False

>  <First In Class>  (207) 
False

>  <Chirality>  (207) 
Single Stereoisomer

>  <Prodrug>  (207) 
False

>  <Oral>  (207) 
False

>  <Parenteral>  (207) 
False

>  <Topical>  (207) 
False

>  <Black Box>  (207) 
False

>  <Availability Type>  (207) 
Unknown

>  <Withdrawn Year>  (207) 
nan

>  <Withdrawn Reason>  (207) 
nan

>  <Withdrawn Country>  (207) 
nan

>  <Withdrawn Class>  (207) 
nan

>  <SMILES>  (207) 
CC1(C)C(/C=C/C2=C(Oc3ccc(C[C@H](NC(=O)c4ccc(NCc5cnc6nc(N)[nH]c(=O)c6n5)cc4)C(=O)O)cc3)/C(=C/C=C3/N(CCCCS(=O)(=O)O)c4ccc(S(=O)(=O)O)cc4C3(C)C)CCC2)=[N+](CCCCS(=O)(=O)O)c2ccc(S(=O)(=O)[O-])cc21

>  <InChi Key>  (207) 
PDXNSXLPXJFETD-UHFFFAOYSA-N

$$$$
CHEMBL4297419
     RDKit          2D

 21 22  0  0  0  0  0  0  0  0999 V2000
    1.5000  -12.9904    0.0000 C   0  0  0  0  0  0  0  0  0  0  0  0
    0.7500  -11.6913    0.0000 C   0  0  0  0  0  0  0  0  0  0  0  0
    1.5000  -10.3923    0.0000 C   0  0  0  0  0  0  0  0  0  0  0  0
    0.7500   -9.0933    0.0000 C   0  0  0  0  0  0  0  0  0  0  0  0
    1.5000   -7.7942    0.0000 C   0  0  0  0  0  0  0  0  0  0  0  0
    0.7500   -6.4952    0.0000 C   0  0  0  0  0  0  0  0  0  0  0  0
    1.5000   -5.1962    0.0000 C   0  0  0  0  0  0  0  0  0  0  0  0
    0.7500   -3.8971    0.0000 C   0  0  0  0  0  0  0  0  0  0  0  0
    1.5000   -2.5981    0.0000 C   0  0  0  0  0  0  0  0  0  0  0  0
    3.0000   -2.5981    0.0000 O   0  0  0  0  0  0  0  0  0  0  0  0
    0.7500   -1.2990    0.0000 C   0  0  0  0  0  0  0  0  0  0  0  0
    1.5000    0.0000    0.0000 C   0  0  0  0  0  0  0  0  0  0  0  0
    0.7500    1.2990    0.0000 C   0  0  0  0  0  0  0  0  0  0  0  0
   -0.7500    1.2990    0.0000 C   0  0  0  0  0  0  0  0  0  0  0  0
   -1.5000    0.0000    0.0000 C   0  0  0  0  0  0  0  0  0  0  0  0
   -0.7500   -1.2990    0.0000 C   0  0  0  0  0  0  0  0  0  0  0  0
   -0.7500   -3.8971    0.0000 N   0  0  0  0  0  0  0  0  0  0  0  0
   -1.6317   -5.1106    0.0000 C   0  0  0  0  0  0  0  0  0  0  0  0
   -3.0583   -4.6471    0.0000 C   0  0  0  0  0  0  0  0  0  0  0  0
   -3.0583   -3.1471    0.0000 C   0  0  0  0  0  0  0  0  0  0  0  0
   -1.6317   -2.6836    0.0000 C   0  0  0  0  0  0  0  0  0  0  0  0
  1  2  1  0
  2  3  1  0
  3  4  1  0
  4  5  1  0
  5  6  1  0
  6  7  1  0
  7  8  1  0
  8  9  1  0
  9 10  2  0
  9 11  1  0
 11 12  2  0
 12 13  1  0
 13 14  2  0
 14 15  1  0
 15 16  2  0
  8 17  1  0
 17 18  1  0
 18 19  1  0
 19 20  1  0
 20 21  1  0
 16 11  1  0
 21 17  1  0
M  END
>  <Synonyms>  (208) 
.ALPHA.-PYRROLIDINONONANOPHENONE|PV-10

>  <Research Codes>  (208) 
nan

>  <Phase>  (208) 
1

>  <Applicants>  (208) 
nan

>  <USAN Stem>  (208) 
nan

>  <USAN Year>  (208) 
nan

>  <USAN Stem Definition>  (208) 
nan

>  <USAN Stem Substem>  (208) 
nan

>  <First Approval>  (208) 
nan

>  <ATC Codes>  (208) 
nan

>  <Level 4 ATC Codes>  (208) 
nan

>  <Level 3 ATC Codes>  (208) 
nan

>  <Level 2 ATC Codes>  (208) 
nan

>  <Level 1 ATC Codes>  (208) 
nan

>  <Indication Class>  (208) 
nan

>  <Patent>  (208) 
nan

>  <Drug Type>  (208) 
1:Synthetic Small Molecule

>  <Passes Rule of Five>  (208) 
True

>  <First In Class>  (208) 
False

>  <Chirality>  (208) 
Racemic Mixture

>  <Prodrug>  (208) 
False

>  <Oral>  (208) 
False

>  <Parenteral>  (208) 
False

>  <Topical>  (208) 
False

>  <Black Box>  (208) 
False

>  <Availability Type>  (208) 
Unknown

>  <Withdrawn Year>  (208) 
nan

>  <Withdrawn Reason>  (208) 
nan

>  <Withdrawn Country>  (208) 
nan

>  <Withdrawn Class>  (208) 
nan

>  <SMILES>  (208) 
CCCCCCCC(C(=O)c1ccccc1)N1CCCC1

>  <InChi Key>  (208) 
RYJXAZXFWIWTOJ-UHFFFAOYSA-N

$$$$
CHEMBL4297421
     RDKit          2D

 30 33  0  0  0  0  0  0  0  0999 V2000
   -0.7360   -6.1923    0.0000 O   0  0  0  0  0  0  0  0  0  0  0  0
    0.4775   -7.0740    0.0000 C   0  0  0  0  0  0  0  0  0  0  0  0
    1.8478   -6.4639    0.0000 N   0  0  0  0  0  0  0  0  0  0  0  0
    2.0046   -4.9721    0.0000 C   0  0  0  0  0  0  0  0  0  0  0  0
    0.8899   -3.9684    0.0000 N   0  0  0  0  0  0  0  0  0  0  0  0
    1.5000   -2.5981    0.0000 C   0  0  0  0  0  0  0  0  0  0  0  0
    0.7500   -1.2990    0.0000 C   0  0  0  0  0  0  0  0  0  0  0  0
    1.5000    0.0000    0.0000 C   0  0  0  0  0  0  0  0  0  0  0  0
    0.7500    1.2990    0.0000 C   0  0  0  0  0  0  0  0  0  0  0  0
   -0.7500    1.2990    0.0000 C   0  0  0  0  0  0  0  0  0  0  0  0
   -1.5000    2.5981    0.0000 O   0  0  0  0  0  0  0  0  0  0  0  0
   -1.5000    0.0000    0.0000 C   0  0  0  0  0  0  0  0  0  0  0  0
   -3.0000    0.0000    0.0000 O   0  0  0  0  0  0  0  0  0  0  0  0
   -0.7500   -1.2990    0.0000 C   0  0  0  0  0  0  0  0  0  0  0  0
    2.9918   -2.7549    0.0000 C   0  0  0  0  0  0  0  0  0  0  0  0
    3.9955   -1.6402    0.0000 C   0  0  0  0  0  0  0  0  0  0  0  0
    5.4627   -1.9520    0.0000 C   0  0  0  0  0  0  0  0  0  0  0  0
    6.4664   -0.8373    0.0000 C   0  0  0  0  0  0  0  0  0  0  0  0
    6.0029    0.5893    0.0000 C   0  0  0  0  0  0  0  0  0  0  0  0
    4.5356    0.9012    0.0000 C   0  0  0  0  0  0  0  0  0  0  0  0
    3.5320   -0.2136    0.0000 C   0  0  0  0  0  0  0  0  0  0  0  0
    3.3037   -4.2221    0.0000 S   0  0  0  0  0  0  0  0  0  0  0  0
    0.3207   -8.5658    0.0000 C   0  0  0  0  0  0  0  0  0  0  0  0
   -1.0496   -9.1759    0.0000 C   0  0  0  0  0  0  0  0  0  0  0  0
   -1.2064  -10.6676    0.0000 C   0  0  0  0  0  0  0  0  0  0  0  0
    0.0071  -11.5493    0.0000 C   0  0  0  0  0  0  0  0  0  0  0  0
   -0.1497  -13.0411    0.0000 O   0  0  0  0  0  0  0  0  0  0  0  0
    1.3774  -10.9392    0.0000 C   0  0  0  0  0  0  0  0  0  0  0  0
    2.5910  -11.8209    0.0000 O   0  0  0  0  0  0  0  0  0  0  0  0
    1.5342   -9.4474    0.0000 C   0  0  0  0  0  0  0  0  0  0  0  0
  1  2  2  0
  2  3  1  0
  3  4  2  3
  4  5  1  0
  5  6  1  0
  6  7  1  0
  7  8  2  0
  8  9  1  0
  9 10  2  0
 10 11  1  0
 10 12  1  0
 12 13  1  0
 12 14  2  0
  6 15  2  0
 15 16  1  0
 16 17  2  0
 17 18  1  0
 18 19  2  0
 19 20  1  0
 20 21  2  0
 15 22  1  0
  2 23  1  0
 23 24  2  0
 24 25  1  0
 25 26  2  0
 26 27  1  0
 26 28  1  0
 28 29  1  0
 28 30  2  0
 22  4  1  0
 30 23  1  0
 14  7  1  0
 21 16  1  0
M  END
>  <Synonyms>  (209) 
COH-29|COH29|RNR INHIBITOR COH29

>  <Research Codes>  (209) 
COH29

>  <Phase>  (209) 
1

>  <Applicants>  (209) 
nan

>  <USAN Stem>  (209) 
nan

>  <USAN Year>  (209) 
nan

>  <USAN Stem Definition>  (209) 
nan

>  <USAN Stem Substem>  (209) 
nan

>  <First Approval>  (209) 
nan

>  <ATC Codes>  (209) 
nan

>  <Level 4 ATC Codes>  (209) 
nan

>  <Level 3 ATC Codes>  (209) 
nan

>  <Level 2 ATC Codes>  (209) 
nan

>  <Level 1 ATC Codes>  (209) 
nan

>  <Indication Class>  (209) 
nan

>  <Patent>  (209) 
nan

>  <Drug Type>  (209) 
1:Synthetic Small Molecule

>  <Passes Rule of Five>  (209) 
True

>  <First In Class>  (209) 
False

>  <Chirality>  (209) 
Achiral Molecule

>  <Prodrug>  (209) 
False

>  <Oral>  (209) 
False

>  <Parenteral>  (209) 
False

>  <Topical>  (209) 
False

>  <Black Box>  (209) 
False

>  <Availability Type>  (209) 
Unknown

>  <Withdrawn Year>  (209) 
nan

>  <Withdrawn Reason>  (209) 
nan

>  <Withdrawn Country>  (209) 
nan

>  <Withdrawn Class>  (209) 
nan

>  <SMILES>  (209) 
O=C(Nc1nc(-c2ccc(O)c(O)c2)c(-c2ccccc2)s1)c1ccc(O)c(O)c1

>  <InChi Key>  (209) 
LGGDLPSXAGQFSG-UHFFFAOYSA-N

$$$$
CHEMBL4297423
     RDKit          2D

 37 41  0  0  0  0  0  0  0  0999 V2000
   -6.1443    1.9820    0.0000 C   0  0  0  0  0  0  0  0  0  0  0  0
   -4.6503    2.1164    0.0000 C   0  0  0  0  0  0  0  0  0  0  0  0
   -3.6634    0.9868    0.0000 S   0  0  0  0  0  0  0  0  0  0  0  0
   -2.2841    1.5763    0.0000 C   0  0  0  0  0  0  0  0  0  0  0  0
   -2.4186    3.0703    0.0000 C   0  0  0  0  0  0  0  0  0  0  0  0
   -3.8810    3.4041    0.0000 C   0  0  0  0  0  0  0  0  0  0  0  0
   -4.4705    4.7834    0.0000 C   0  0  0  0  0  0  0  0  0  0  0  0
   -1.3344    4.1069    0.0000 C   0  0  0  0  0  0  0  0  0  0  0  0
   -1.7979    5.5335    0.0000 C   0  0  0  0  0  0  0  0  0  0  0  0
   -0.7942    6.6482    0.0000 C   0  0  0  0  0  0  0  0  0  0  0  0
   -1.2578    8.0748    0.0000 C   0  0  0  0  0  0  0  0  0  0  0  0
   -2.7250    8.3867    0.0000 C   0  0  0  0  0  0  0  0  0  0  0  0
   -3.1885    9.8132    0.0000 Cl  0  0  0  0  0  0  0  0  0  0  0  0
   -3.7287    7.2719    0.0000 C   0  0  0  0  0  0  0  0  0  0  0  0
   -3.2652    5.8454    0.0000 C   0  0  0  0  0  0  0  0  0  0  0  0
    0.1520    3.9056    0.0000 N   0  0  0  0  0  0  0  0  0  0  0  0
    0.9214    2.6179    0.0000 C   0  0  0  0  0  0  0  0  0  0  0  0
    2.4153    2.7523    0.0000 C   0  0  0  0  0  0  0  0  0  0  0  0
    3.0459    4.1134    0.0000 C   0  0  0  0  0  0  0  0  0  0  0  0
    2.1824    5.3400    0.0000 O   0  0  0  0  0  0  0  0  0  0  0  0
    4.5398    4.2478    0.0000 N   0  0  0  0  0  0  0  0  0  0  0  0
    5.1704    5.6089    0.0000 C   0  0  0  0  0  0  0  0  0  0  0  0
    6.6643    5.7433    0.0000 C   0  0  0  0  0  0  0  0  0  0  0  0
    7.2949    7.1044    0.0000 C   0  0  0  0  0  0  0  0  0  0  0  0
    8.7888    7.2388    0.0000 N   0  0  0  0  0  0  0  0  0  0  0  0
    9.6522    6.0122    0.0000 C   0  0  0  0  0  0  0  0  0  0  0  0
   11.1462    6.1467    0.0000 C   0  0  0  0  0  0  0  0  0  0  0  0
   11.7767    7.5077    0.0000 N   0  0  0  0  0  0  0  0  0  0  0  0
   13.2707    7.6422    0.0000 C   0  0  0  0  0  0  0  0  0  0  0  0
   10.9133    8.7343    0.0000 C   0  0  0  0  0  0  0  0  0  0  0  0
    9.4193    8.5999    0.0000 C   0  0  0  0  0  0  0  0  0  0  0  0
    0.3943    1.2135    0.0000 C   0  0  0  0  0  0  0  0  0  0  0  0
    1.2760    0.0000    0.0000 N   0  0  0  0  0  0  0  0  0  0  0  0
    0.3943   -1.2135    0.0000 N   0  0  0  0  0  0  0  0  0  0  0  0
   -1.0323   -0.7500    0.0000 C   0  0  0  0  0  0  0  0  0  0  0  0
   -2.2458   -1.6317    0.0000 C   0  0  0  0  0  0  0  0  0  0  0  0
   -1.0323    0.7500    0.0000 N   0  0  0  0  0  0  0  0  0  0  0  0
  1  2  1  0
  2  3  1  0
  3  4  1  0
  4  5  2  0
  5  6  1  0
  6  7  1  0
  5  8  1  0
  8  9  1  0
  9 10  2  0
 10 11  1  0
 11 12  2  0
 12 13  1  0
 12 14  1  0
 14 15  2  0
  8 16  2  0
 16 17  1  0
 17 18  1  0
 18 19  1  0
 19 20  2  0
 19 21  1  0
 21 22  1  0
 22 23  1  0
 23 24  1  0
 24 25  1  0
 25 26  1  0
 26 27  1  0
 27 28  1  0
 28 29  1  0
 28 30  1  0
 30 31  1  0
 17 32  1  0
 32 33  2  0
 33 34  1  0
 34 35  2  0
 35 36  1  0
 35 37  1  0
  6  2  2  0
 15  9  1  0
 31 25  1  0
 37 32  1  0
 37  4  1  0
M  END
>  <Synonyms>  (210) 
(S)-JQ35|BET INHIBITOR TEN-010|RG 6146|RO-6870810|RO6870810

>  <Research Codes>  (210) 
(S)-JQ35|BET INHIBITOR TEN-010|RO6870810

>  <Phase>  (210) 
1

>  <Applicants>  (210) 
nan

>  <USAN Stem>  (210) 
nan

>  <USAN Year>  (210) 
nan

>  <USAN Stem Definition>  (210) 
nan

>  <USAN Stem Substem>  (210) 
nan

>  <First Approval>  (210) 
nan

>  <ATC Codes>  (210) 
nan

>  <Level 4 ATC Codes>  (210) 
nan

>  <Level 3 ATC Codes>  (210) 
nan

>  <Level 2 ATC Codes>  (210) 
nan

>  <Level 1 ATC Codes>  (210) 
nan

>  <Indication Class>  (210) 
nan

>  <Patent>  (210) 
nan

>  <Drug Type>  (210) 
1:Synthetic Small Molecule

>  <Passes Rule of Five>  (210) 
False

>  <First In Class>  (210) 
False

>  <Chirality>  (210) 
Single Stereoisomer

>  <Prodrug>  (210) 
False

>  <Oral>  (210) 
False

>  <Parenteral>  (210) 
False

>  <Topical>  (210) 
False

>  <Black Box>  (210) 
False

>  <Availability Type>  (210) 
Unknown

>  <Withdrawn Year>  (210) 
nan

>  <Withdrawn Reason>  (210) 
nan

>  <Withdrawn Country>  (210) 
nan

>  <Withdrawn Class>  (210) 
nan

>  <SMILES>  (210) 
Cc1sc2c(c1C)C(c1ccc(Cl)cc1)=N[C@@H](CC(=O)NCCCN1CCN(C)CC1)c1nnc(C)n1-2

>  <InChi Key>  (210) 
PKQXLRYFPSZKDU-UHFFFAOYSA-N

$$$$
CHEMBL4297425
     RDKit          2D

 35 36  0  0  0  0  0  0  0  0999 V2000
  -19.4856   -7.3573    0.0000 C   0  0  0  0  0  0  0  0  0  0  0  0
  -18.1865   -8.1073    0.0000 C   0  0  0  0  0  0  0  0  0  0  0  0
  -16.8875   -7.3573    0.0000 C   0  0  0  0  0  0  0  0  0  0  0  0
  -15.5885   -8.1073    0.0000 C   0  0  0  0  0  0  0  0  0  0  0  0
  -14.2894   -7.3573    0.0000 C   0  0  0  0  0  0  0  0  0  0  0  0
  -12.9904   -8.1073    0.0000 C   0  0  0  0  0  0  0  0  0  0  0  0
  -11.6913   -7.3573    0.0000 C   0  0  0  0  0  0  0  0  0  0  0  0
  -10.3923   -8.1073    0.0000 C   0  0  0  0  0  0  0  0  0  0  0  0
   -9.0933   -7.3573    0.0000 C   0  0  0  0  0  0  0  0  0  0  0  0
   -7.7942   -8.1073    0.0000 C   0  0  0  0  0  0  0  0  0  0  0  0
   -6.4952   -7.3573    0.0000 C   0  0  0  0  0  0  0  0  0  0  0  0
   -5.1962   -8.1073    0.0000 C   0  0  0  0  0  0  0  0  0  0  0  0
   -3.8971   -7.3573    0.0000 O   0  0  0  0  0  0  0  0  0  0  0  0
   -2.5981   -8.1073    0.0000 C   0  0  0  0  0  0  0  0  0  0  0  0
   -2.5981   -9.6073    0.0000 O   0  0  0  0  0  0  0  0  0  0  0  0
   -1.2990   -7.3573    0.0000 C   0  0  0  0  0  0  0  0  0  0  0  0
   -1.2990   -5.8573    0.0000 C   0  0  0  0  0  0  0  0  0  0  0  0
   -0.0000   -5.1073    0.0000 C   0  0  0  0  0  0  0  0  0  0  0  0
   -0.0000   -3.6073    0.0000 C   0  0  0  0  0  0  0  0  0  0  0  0
    1.2135   -2.7256    0.0000 N   0  0  0  0  0  0  0  0  0  0  0  0
    0.7500   -1.2990    0.0000 C   0  0  0  0  0  0  0  0  0  0  0  0
    1.5000    0.0000    0.0000 C   0  0  0  0  0  0  0  0  0  0  0  0
    0.7500    1.2990    0.0000 C   0  0  0  0  0  0  0  0  0  0  0  0
    1.5000    2.5981    0.0000 N   0  0  0  0  0  0  0  0  0  0  0  0
    3.0000    2.5981    0.0000 C   0  0  0  0  0  0  0  0  0  0  0  0
    3.7500    3.8971    0.0000 C   0  0  0  0  0  0  0  0  0  0  0  0
    5.2500    3.8971    0.0000 Cl  0  0  0  0  0  0  0  0  0  0  0  0
    0.7500    3.8971    0.0000 C   0  0  0  0  0  0  0  0  0  0  0  0
    1.5000    5.1962    0.0000 C   0  0  0  0  0  0  0  0  0  0  0  0
    0.7500    6.4952    0.0000 Cl  0  0  0  0  0  0  0  0  0  0  0  0
   -0.7500    1.2990    0.0000 C   0  0  0  0  0  0  0  0  0  0  0  0
   -1.5000    0.0000    0.0000 C   0  0  0  0  0  0  0  0  0  0  0  0
   -0.7500   -1.2990    0.0000 C   0  0  0  0  0  0  0  0  0  0  0  0
   -1.2135   -2.7256    0.0000 N   0  0  0  0  0  0  0  0  0  0  0  0
   -2.6401   -3.1891    0.0000 C   0  0  0  0  0  0  0  0  0  0  0  0
  1  2  1  0
  2  3  1  0
  3  4  1  0
  4  5  1  0
  5  6  1  0
  6  7  1  0
  7  8  1  0
  8  9  1  0
  9 10  1  0
 10 11  1  0
 11 12  1  0
 12 13  1  0
 13 14  1  0
 14 15  2  0
 14 16  1  0
 16 17  1  0
 17 18  1  0
 18 19  1  0
 19 20  2  0
 20 21  1  0
 21 22  2  0
 22 23  1  0
 23 24  1  0
 24 25  1  0
 25 26  1  0
 26 27  1  0
 24 28  1  0
 28 29  1  0
 29 30  1  0
 23 31  2  0
 31 32  1  0
 32 33  2  0
 33 34  1  0
 34 35  1  0
 34 19  1  0
 33 21  1  0
M  END
>  <Synonyms>  (211) 
BENDAMUSTINE DODECYL ESTER|CEP-40125|RXDX-107

>  <Research Codes>  (211) 
CEP-40125|RXDX-107

>  <Phase>  (211) 
1

>  <Applicants>  (211) 
nan

>  <USAN Stem>  (211) 
'-mustine'

>  <USAN Year>  (211) 
nan

>  <USAN Stem Definition>  (211) 
antineoplastics (chloroethylamine derivatives)

>  <USAN Stem Substem>  (211) 
'-mustine(-mustine)'

>  <First Approval>  (211) 
nan

>  <ATC Codes>  (211) 
nan

>  <Level 4 ATC Codes>  (211) 
nan

>  <Level 3 ATC Codes>  (211) 
nan

>  <Level 2 ATC Codes>  (211) 
nan

>  <Level 1 ATC Codes>  (211) 
nan

>  <Indication Class>  (211) 
nan

>  <Patent>  (211) 
nan

>  <Drug Type>  (211) 
1:Synthetic Small Molecule

>  <Passes Rule of Five>  (211) 
False

>  <First In Class>  (211) 
False

>  <Chirality>  (211) 
Achiral Molecule

>  <Prodrug>  (211) 
False

>  <Oral>  (211) 
False

>  <Parenteral>  (211) 
False

>  <Topical>  (211) 
False

>  <Black Box>  (211) 
False

>  <Availability Type>  (211) 
Unknown

>  <Withdrawn Year>  (211) 
nan

>  <Withdrawn Reason>  (211) 
nan

>  <Withdrawn Country>  (211) 
nan

>  <Withdrawn Class>  (211) 
nan

>  <SMILES>  (211) 
CCCCCCCCCCCCOC(=O)CCCc1nc2cc(N(CCCl)CCCl)ccc2n1C

>  <InChi Key>  (211) 
RJNURICEBYUKHL-UHFFFAOYSA-N

$$$$
CHEMBL4297454
     RDKit          2D

 36 39  0  0  0  0  0  0  0  0999 V2000
    5.7760   -2.5981    0.0000 C   0  0  0  0  0  0  0  0  0  0  0  0
    5.0260   -1.2990    0.0000 C   0  0  0  0  0  0  0  0  0  0  0  0
    3.5260   -1.2990    0.0000 N   0  0  0  0  0  0  0  0  0  0  0  0
    2.7760    0.0000    0.0000 C   0  0  0  0  0  0  0  0  0  0  0  0
    3.5260    1.2990    0.0000 O   0  0  0  0  0  0  0  0  0  0  0  0
    1.2760    0.0000    0.0000 C   0  0  0  0  0  0  0  0  0  0  0  0
    0.3943    1.2135    0.0000 C   0  0  0  0  0  0  0  0  0  0  0  0
   -1.0323    0.7500    0.0000 C   0  0  0  0  0  0  0  0  0  0  0  0
   -2.3313    1.5000    0.0000 C   0  0  0  0  0  0  0  0  0  0  0  0
   -2.3313    3.0000    0.0000 C   0  0  0  0  0  0  0  0  0  0  0  0
   -1.0323    3.7500    0.0000 C   0  0  0  0  0  0  0  0  0  0  0  0
   -1.0323    5.2500    0.0000 C   0  0  0  0  0  0  0  0  0  0  0  0
    0.2668    6.0000    0.0000 C   0  0  0  0  0  0  0  0  0  0  0  0
   -0.4832    7.2990    0.0000 C   0  0  0  0  0  0  0  0  0  0  0  0
    1.0168    4.7010    0.0000 C   0  0  0  0  0  0  0  0  0  0  0  0
    1.5658    6.7500    0.0000 O   0  0  0  0  0  0  0  0  0  0  0  0
   -2.3313    6.0000    0.0000 C   0  0  0  0  0  0  0  0  0  0  0  0
   -3.6304    5.2500    0.0000 C   0  0  0  0  0  0  0  0  0  0  0  0
   -3.6304    3.7500    0.0000 C   0  0  0  0  0  0  0  0  0  0  0  0
   -4.9294    3.0000    0.0000 O   0  0  0  0  0  0  0  0  0  0  0  0
   -6.2284    3.7500    0.0000 C   0  0  0  0  0  0  0  0  0  0  0  0
   -6.2284    5.2500    0.0000 C   0  0  0  0  0  0  0  0  0  0  0  0
   -4.9294    6.0000    0.0000 C   0  0  0  0  0  0  0  0  0  0  0  0
   -7.5275    6.0000    0.0000 C   0  0  0  0  0  0  0  0  0  0  0  0
   -8.8265    5.2500    0.0000 C   0  0  0  0  0  0  0  0  0  0  0  0
  -10.1256    6.0000    0.0000 F   0  0  0  0  0  0  0  0  0  0  0  0
   -8.8265    3.7500    0.0000 C   0  0  0  0  0  0  0  0  0  0  0  0
   -7.5275    3.0000    0.0000 C   0  0  0  0  0  0  0  0  0  0  0  0
   -7.5275    1.5000    0.0000 C   0  0  0  0  0  0  0  0  0  0  0  0
   -3.6304    0.7500    0.0000 C   0  0  0  0  0  0  0  0  0  0  0  0
   -3.6304   -0.7500    0.0000 N   0  0  0  0  0  0  0  0  0  0  0  0
   -4.9294   -1.5000    0.0000 C   0  0  0  0  0  0  0  0  0  0  0  0
   -2.3313   -1.5000    0.0000 C   0  0  0  0  0  0  0  0  0  0  0  0
   -2.3313   -3.0000    0.0000 O   0  0  0  0  0  0  0  0  0  0  0  0
   -1.0323   -0.7500    0.0000 C   0  0  0  0  0  0  0  0  0  0  0  0
    0.3943   -1.2135    0.0000 N   0  0  0  0  0  0  0  0  0  0  0  0
  1  2  1  0
  2  3  1  0
  3  4  1  0
  4  5  2  0
  4  6  1  0
  6  7  2  0
  7  8  1  0
  8  9  1  0
  9 10  1  0
 10 11  2  0
 11 12  1  0
 12 13  1  0
 13 14  1  0
 13 15  1  0
 13 16  1  0
 12 17  2  0
 17 18  1  0
 18 19  2  0
 19 20  1  0
 20 21  1  0
 21 22  2  0
 22 23  1  0
 22 24  1  0
 24 25  2  0
 25 26  1  0
 25 27  1  0
 27 28  2  0
 28 29  1  0
  9 30  2  0
 30 31  1  0
 31 32  1  0
 31 33  1  0
 33 34  2  0
 33 35  1  0
 35 36  1  0
 36  6  1  0
 35  8  2  0
 19 10  1  0
 28 21  1  0
M  END
>  <Synonyms>  (212) 
ABBV-744

>  <Research Codes>  (212) 
ABBV-744

>  <Phase>  (212) 
1

>  <Applicants>  (212) 
nan

>  <USAN Stem>  (212) 
nan

>  <USAN Year>  (212) 
nan

>  <USAN Stem Definition>  (212) 
nan

>  <USAN Stem Substem>  (212) 
nan

>  <First Approval>  (212) 
nan

>  <ATC Codes>  (212) 
nan

>  <Level 4 ATC Codes>  (212) 
nan

>  <Level 3 ATC Codes>  (212) 
nan

>  <Level 2 ATC Codes>  (212) 
nan

>  <Level 1 ATC Codes>  (212) 
nan

>  <Indication Class>  (212) 
nan

>  <Patent>  (212) 
nan

>  <Drug Type>  (212) 
1:Synthetic Small Molecule

>  <Passes Rule of Five>  (212) 
False

>  <First In Class>  (212) 
False

>  <Chirality>  (212) 
Achiral Molecule

>  <Prodrug>  (212) 
False

>  <Oral>  (212) 
False

>  <Parenteral>  (212) 
False

>  <Topical>  (212) 
False

>  <Black Box>  (212) 
False

>  <Availability Type>  (212) 
Unknown

>  <Withdrawn Year>  (212) 
nan

>  <Withdrawn Reason>  (212) 
nan

>  <Withdrawn Country>  (212) 
nan

>  <Withdrawn Class>  (212) 
nan

>  <SMILES>  (212) 
CCNC(=O)c1cc2c(-c3cc(C(C)(C)O)ccc3Oc3c(C)cc(F)cc3C)cn(C)c(=O)c2[nH]1

>  <InChi Key>  (212) 
OEDSFMUSNZDJFD-UHFFFAOYSA-N

$$$$
CHEMBL4297499
     RDKit          2D

 30 31  0  0  0  0  0  0  0  0999 V2000
    9.8128   -4.8389    0.0000 C   0  0  0  0  0  0  0  0  0  0  0  0
    8.3863   -5.3024    0.0000 C   0  0  0  0  0  0  0  0  0  0  0  0
    8.0744   -6.7697    0.0000 C   0  0  0  0  0  0  0  0  0  0  0  0
    7.2715   -4.2987    0.0000 C   0  0  0  0  0  0  0  0  0  0  0  0
    7.5834   -2.8315    0.0000 O   0  0  0  0  0  0  0  0  0  0  0  0
    5.8450   -4.7623    0.0000 O   0  0  0  0  0  0  0  0  0  0  0  0
    4.7302   -3.7586    0.0000 C   0  0  0  0  0  0  0  0  0  0  0  0
    3.3037   -4.2221    0.0000 C   0  0  0  0  0  0  0  0  0  0  0  0
    3.9138   -5.5924    0.0000 N   0  0  0  0  0  0  0  0  0  0  0  0
    3.0321   -6.8059    0.0000 N   0  0  0  0  0  4  0  0  0  0  0  0
    2.1504   -8.0195    0.0000 N   0  0  0  0  0  2  0  0  0  0  0  0
    2.9918   -2.7549    0.0000 O   0  0  0  0  0  0  0  0  0  0  0  0
    1.5000   -2.5981    0.0000 C   0  0  0  0  0  0  0  0  0  0  0  0
    0.7500   -1.2990    0.0000 N   0  0  0  0  0  0  0  0  0  0  0  0
    1.5000    0.0000    0.0000 C   0  0  0  0  0  0  0  0  0  0  0  0
    0.7500    1.2990    0.0000 C   0  0  0  0  0  0  0  0  0  0  0  0
   -0.7500    1.2990    0.0000 C   0  0  0  0  0  0  0  0  0  0  0  0
   -1.5000    2.5981    0.0000 N   0  0  0  0  0  0  0  0  0  0  0  0
   -1.5000    0.0000    0.0000 N   0  0  0  0  0  0  0  0  0  0  0  0
   -0.7500   -1.2990    0.0000 C   0  0  0  0  0  0  0  0  0  0  0  0
   -1.5000   -2.5981    0.0000 O   0  0  0  0  0  0  0  0  0  0  0  0
    0.8899   -3.9684    0.0000 C   0  0  0  0  0  0  0  0  0  0  0  0
   -0.5773   -4.2803    0.0000 C   0  0  0  0  0  0  0  0  0  0  0  0
    2.0046   -4.9721    0.0000 C   0  0  0  0  0  0  0  0  0  0  0  0
    1.8478   -6.4639    0.0000 O   0  0  0  0  0  0  0  0  0  0  0  0
    0.4775   -7.0740    0.0000 C   0  0  0  0  0  0  0  0  0  0  0  0
   -0.7360   -6.1923    0.0000 O   0  0  0  0  0  0  0  0  0  0  0  0
    0.3207   -8.5658    0.0000 C   0  0  0  0  0  0  0  0  0  0  0  0
   -1.0496   -9.1759    0.0000 C   0  0  0  0  0  0  0  0  0  0  0  0
    1.5342   -9.4474    0.0000 C   0  0  0  0  0  0  0  0  0  0  0  0
  1  2  1  0
  2  3  1  0
  2  4  1  0
  4  5  2  0
  4  6  1  0
  6  7  1  0
  8  7  1  6
  8  9  1  0
  9 10  2  0
 10 11  2  0
  8 12  1  0
 12 13  1  0
 13 14  1  6
 14 15  1  0
 15 16  2  0
 16 17  1  0
 17 18  2  0
 17 19  1  0
 19 20  1  0
 20 21  2  0
 13 22  1  0
 22 23  1  6
 22 24  1  0
 24 25  1  1
 25 26  1  0
 26 27  2  0
 26 28  1  0
 28 29  1  0
 28 30  1  0
 24  8  1  0
 20 14  1  0
M  CHG  2  10   1  11  -1
M  END
>  <Synonyms>  (213) 
TMC-649128|TMC649128

>  <Research Codes>  (213) 
TMC-649128|TMC649128

>  <Phase>  (213) 
1

>  <Applicants>  (213) 
nan

>  <USAN Stem>  (213) 
nan

>  <USAN Year>  (213) 
nan

>  <USAN Stem Definition>  (213) 
nan

>  <USAN Stem Substem>  (213) 
nan

>  <First Approval>  (213) 
nan

>  <ATC Codes>  (213) 
nan

>  <Level 4 ATC Codes>  (213) 
nan

>  <Level 3 ATC Codes>  (213) 
nan

>  <Level 2 ATC Codes>  (213) 
nan

>  <Level 1 ATC Codes>  (213) 
nan

>  <Indication Class>  (213) 
nan

>  <Patent>  (213) 
nan

>  <Drug Type>  (213) 
7:Natural Product-derived

>  <Passes Rule of Five>  (213) 
True

>  <First In Class>  (213) 
False

>  <Chirality>  (213) 
Single Stereoisomer

>  <Prodrug>  (213) 
False

>  <Oral>  (213) 
False

>  <Parenteral>  (213) 
False

>  <Topical>  (213) 
False

>  <Black Box>  (213) 
False

>  <Availability Type>  (213) 
Unknown

>  <Withdrawn Year>  (213) 
nan

>  <Withdrawn Reason>  (213) 
nan

>  <Withdrawn Country>  (213) 
nan

>  <Withdrawn Class>  (213) 
nan

>  <SMILES>  (213) 
CC(C)C(=O)OC[C@@]1(N=[N+]=[N-])O[C@@H](n2ccc(N)nc2=O)[C@@H](C)[C@@H]1OC(=O)C(C)C

>  <InChi Key>  (213) 
XJBILYMRFVHPJB-XJQUKVTJSA-N

$$$$
CHEMBL4297610
     RDKit          2D

 25 27  0  0  0  0  0  0  0  0999 V2000
    0.7500   -6.4952    0.0000 C   0  0  0  0  0  0  0  0  0  0  0  0
    1.5000   -5.1962    0.0000 C   0  0  0  0  0  0  0  0  0  0  0  0
    3.0000   -5.1962    0.0000 N   0  0  0  0  0  0  0  0  0  0  0  0
    3.7500   -6.4952    0.0000 C   0  0  0  0  0  0  0  0  0  0  0  0
    3.0000   -7.7942    0.0000 C   0  0  0  0  0  0  0  0  0  0  0  0
    3.7500   -9.0933    0.0000 C   0  0  0  0  0  0  0  0  0  0  0  0
    5.2500   -9.0933    0.0000 C   0  0  0  0  0  0  0  0  0  0  0  0
    6.0000  -10.3923    0.0000 C   0  0  0  0  0  0  0  0  0  0  0  0
    6.7500  -11.6913    0.0000 N   0  0  0  0  0  0  0  0  0  0  0  0
    6.0000   -7.7942    0.0000 N   0  0  0  0  0  0  0  0  0  0  0  0
    7.5000   -7.7942    0.0000 C   0  0  0  0  0  0  0  0  0  0  0  0
    5.2500   -6.4952    0.0000 C   0  0  0  0  0  0  0  0  0  0  0  0
    6.0000   -5.1962    0.0000 O   0  0  0  0  0  0  0  0  0  0  0  0
    0.7500   -3.8971    0.0000 C   0  0  0  0  0  0  0  0  0  0  0  0
    1.5000   -2.5981    0.0000 C   0  0  0  0  0  0  0  0  0  0  0  0
    0.7500   -1.2990    0.0000 C   0  0  0  0  0  0  0  0  0  0  0  0
    1.5000    0.0000    0.0000 C   0  0  0  0  0  0  0  0  0  0  0  0
    0.7500    1.2990    0.0000 C   0  0  0  0  0  0  0  0  0  0  0  0
    1.5000    2.5981    0.0000 Cl  0  0  0  0  0  0  0  0  0  0  0  0
   -0.7500    1.2990    0.0000 C   0  0  0  0  0  0  0  0  0  0  0  0
   -1.5000    0.0000    0.0000 C   0  0  0  0  0  0  0  0  0  0  0  0
   -0.7500   -1.2990    0.0000 C   0  0  0  0  0  0  0  0  0  0  0  0
   -1.5000   -2.5981    0.0000 N   0  0  0  0  0  0  0  0  0  0  0  0
   -0.7500   -3.8971    0.0000 C   0  0  0  0  0  0  0  0  0  0  0  0
   -1.5000   -5.1962    0.0000 O   0  0  0  0  0  0  0  0  0  0  0  0
  2  1  1  1
  2  3  1  0
  3  4  1  0
  4  5  2  0
  5  6  1  0
  6  7  2  0
  7  8  1  0
  8  9  3  0
  7 10  1  0
 10 11  1  0
 10 12  1  0
 12 13  2  0
  2 14  1  0
 14 15  2  0
 15 16  1  0
 16 17  2  0
 17 18  1  0
 18 19  1  0
 18 20  2  0
 20 21  1  0
 21 22  2  0
 22 23  1  0
 23 24  1  0
 24 25  2  0
 12  4  1  0
 24 14  1  0
 22 16  1  0
M  END
>  <Synonyms>  (214) 
FT-2102|OLUTASIDENIB

>  <Research Codes>  (214) 
FT-2102

>  <Phase>  (214) 
1

>  <Applicants>  (214) 
nan

>  <USAN Stem>  (214) 
'-sidenib'

>  <USAN Year>  (214) 
2018.0

>  <USAN Stem Definition>  (214) 
mutated isocitrate dehydrogenase (IDH) inhibitors

>  <USAN Stem Substem>  (214) 
'-sidenib(-sidenib)'

>  <First Approval>  (214) 
nan

>  <ATC Codes>  (214) 
nan

>  <Level 4 ATC Codes>  (214) 
nan

>  <Level 3 ATC Codes>  (214) 
nan

>  <Level 2 ATC Codes>  (214) 
nan

>  <Level 1 ATC Codes>  (214) 
nan

>  <Indication Class>  (214) 
nan

>  <Patent>  (214) 
nan

>  <Drug Type>  (214) 
1:Synthetic Small Molecule

>  <Passes Rule of Five>  (214) 
True

>  <First In Class>  (214) 
False

>  <Chirality>  (214) 
Single Stereoisomer

>  <Prodrug>  (214) 
False

>  <Oral>  (214) 
False

>  <Parenteral>  (214) 
False

>  <Topical>  (214) 
False

>  <Black Box>  (214) 
False

>  <Availability Type>  (214) 
Unknown

>  <Withdrawn Year>  (214) 
nan

>  <Withdrawn Reason>  (214) 
nan

>  <Withdrawn Country>  (214) 
nan

>  <Withdrawn Class>  (214) 
nan

>  <SMILES>  (214) 
C[C@H](Nc1ccc(C#N)n(C)c1=O)c1cc2cc(Cl)ccc2[nH]c1=O

>  <InChi Key>  (214) 
NEQYWYXGTJDAKR-JTQLQIEISA-N

$$$$
CHEMBL4297387
     RDKit          2D

 32 35  0  0  0  0  0  0  0  0999 V2000
   -6.0000    0.0000    0.0000 C   0  0  0  0  0  0  0  0  0  0  0  0
   -5.2500   -1.2990    0.0000 C   0  0  0  0  0  0  0  0  0  0  0  0
   -6.0000   -2.5981    0.0000 C   0  0  0  0  0  0  0  0  0  0  0  0
   -7.5000   -2.5981    0.0000 C   0  0  0  0  0  0  0  0  0  0  0  0
   -8.2500   -3.8971    0.0000 C   0  0  0  0  0  0  0  0  0  0  0  0
   -9.7500   -3.8971    0.0000 Cl  0  0  0  0  0  0  0  0  0  0  0  0
   -7.5000   -5.1962    0.0000 C   0  0  0  0  0  0  0  0  0  0  0  0
   -6.0000   -5.1962    0.0000 C   0  0  0  0  0  0  0  0  0  0  0  0
   -5.2500   -6.4952    0.0000 C   0  0  0  0  0  0  0  0  0  0  0  0
   -3.7500   -6.4952    0.0000 C   0  0  0  0  0  0  0  0  0  0  0  0
   -3.0000   -5.1962    0.0000 C   0  0  0  0  0  0  0  0  0  0  0  0
   -3.7500   -3.8971    0.0000 C   0  0  0  0  0  0  0  0  0  0  0  0
   -5.2500   -3.8971    0.0000 C   0  0  0  0  0  0  0  0  0  0  0  0
   -3.7500   -1.2990    0.0000 N   0  0  0  0  0  0  0  0  0  0  0  0
   -3.0000   -2.5981    0.0000 C   0  0  0  0  0  0  0  0  0  0  0  0
   -3.0000    0.0000    0.0000 C   0  0  0  0  0  0  0  0  0  0  0  0
   -1.5000    0.0000    0.0000 O   0  0  0  0  0  0  0  0  0  0  0  0
   -3.7500    1.2990    0.0000 C   0  0  0  0  0  0  0  0  0  0  0  0
   -3.0000    2.5981    0.0000 C   0  0  0  0  0  0  0  0  0  0  0  0
   -4.4095    3.1111    0.0000 C   0  0  0  0  0  0  0  0  0  0  0  0
   -4.6700    4.5883    0.0000 C   0  0  0  0  0  0  0  0  0  0  0  0
   -6.0796    5.1013    0.0000 C   0  0  0  0  0  0  0  0  0  0  0  0
   -7.2286    4.1372    0.0000 C   0  0  0  0  0  0  0  0  0  0  0  0
   -8.6382    4.6502    0.0000 F   0  0  0  0  0  0  0  0  0  0  0  0
   -6.9681    2.6600    0.0000 C   0  0  0  0  0  0  0  0  0  0  0  0
   -5.5586    2.1469    0.0000 C   0  0  0  0  0  0  0  0  0  0  0  0
   -1.8509    1.6339    0.0000 C   0  0  0  0  0  0  0  0  0  0  0  0
   -0.4414    2.1469    0.0000 C   0  0  0  0  0  0  0  0  0  0  0  0
   -0.1809    3.6241    0.0000 N   0  0  0  0  0  0  0  0  0  0  0  0
    1.2286    4.1372    0.0000 C   0  0  0  0  0  0  0  0  0  0  0  0
   -1.3300    4.5883    0.0000 C   0  0  0  0  0  0  0  0  0  0  0  0
   -2.7395    4.0753    0.0000 C   0  0  0  0  0  0  0  0  0  0  0  0
  2  1  1  6
  2  3  1  0
  3  4  2  0
  4  5  1  0
  5  6  1  0
  5  7  2  0
  7  8  1  0
  8  9  2  0
  9 10  1  0
 10 11  2  0
 11 12  1  0
 12 13  2  0
  2 14  1  0
 14 15  1  0
 14 16  1  0
 16 17  2  0
 16 18  1  0
 18 19  1  0
 19 20  1  0
 20 21  2  0
 21 22  1  0
 22 23  2  0
 23 24  1  0
 23 25  1  0
 25 26  2  0
 19 27  1  0
 27 28  1  0
 28 29  1  0
 29 30  1  0
 29 31  1  0
 31 32  1  0
 13  3  1  0
 32 19  1  0
 13  8  1  0
 26 20  1  0
M  END
>  <Synonyms>  (215) 
GSK-424887|GSK424887

>  <Research Codes>  (215) 
GSK424887

>  <Phase>  (215) 
1

>  <Applicants>  (215) 
nan

>  <USAN Stem>  (215) 
nan

>  <USAN Year>  (215) 
nan

>  <USAN Stem Definition>  (215) 
nan

>  <USAN Stem Substem>  (215) 
nan

>  <First Approval>  (215) 
nan

>  <ATC Codes>  (215) 
nan

>  <Level 4 ATC Codes>  (215) 
nan

>  <Level 3 ATC Codes>  (215) 
nan

>  <Level 2 ATC Codes>  (215) 
nan

>  <Level 1 ATC Codes>  (215) 
nan

>  <Indication Class>  (215) 
nan

>  <Patent>  (215) 
nan

>  <Drug Type>  (215) 
1:Synthetic Small Molecule

>  <Passes Rule of Five>  (215) 
False

>  <First In Class>  (215) 
False

>  <Chirality>  (215) 
Single Stereoisomer

>  <Prodrug>  (215) 
False

>  <Oral>  (215) 
False

>  <Parenteral>  (215) 
False

>  <Topical>  (215) 
False

>  <Black Box>  (215) 
False

>  <Availability Type>  (215) 
Unknown

>  <Withdrawn Year>  (215) 
nan

>  <Withdrawn Reason>  (215) 
nan

>  <Withdrawn Country>  (215) 
nan

>  <Withdrawn Class>  (215) 
nan

>  <SMILES>  (215) 
C[C@@H](c1cc(Cl)cc2ccccc12)N(C)C(=O)CC1(c2ccc(F)cc2)CCN(C)CC1

>  <InChi Key>  (215) 
DRXBWLBZWAJIEF-IBGZPJMESA-N

$$$$
CHEMBL4297402
     RDKit          2D

 38 42  0  0  0  0  0  0  0  0999 V2000
   -0.5773   -6.8783    0.0000 C   0  0  0  0  0  0  0  0  0  0  0  0
    0.8899   -6.5665    0.0000 C   0  0  0  0  0  0  0  0  0  0  0  0
    2.0046   -7.5702    0.0000 N   0  0  0  0  0  0  0  0  0  0  0  0
    3.3037   -6.8202    0.0000 N   0  0  0  0  0  0  0  0  0  0  0  0
    2.9918   -5.3529    0.0000 N   0  0  0  0  0  0  0  0  0  0  0  0
    1.5000   -5.1962    0.0000 N   0  0  0  0  0  0  0  0  0  0  0  0
    0.7500   -3.8971    0.0000 N   0  0  0  0  0  0  0  0  0  0  0  0
    1.5000   -2.5981    0.0000 C   0  0  0  0  0  0  0  0  0  0  0  0
    0.7500   -1.2990    0.0000 C   0  0  0  0  0  0  0  0  0  0  0  0
    1.5000    0.0000    0.0000 C   0  0  0  0  0  0  0  0  0  0  0  0
    0.7500    1.2990    0.0000 C   0  0  0  0  0  0  0  0  0  0  0  0
   -0.7500    1.2990    0.0000 C   0  0  0  0  0  0  0  0  0  0  0  0
   -1.5000    2.5981    0.0000 O   0  0  0  0  0  0  0  0  0  0  0  0
   -1.5000    0.0000    0.0000 C   0  0  0  0  0  0  0  0  0  0  0  0
   -3.0000    0.0000    0.0000 C   0  0  0  0  0  0  0  0  0  0  0  0
   -3.7500   -1.2990    0.0000 C   0  0  0  0  0  0  0  0  0  0  0  0
   -5.2500   -1.2990    0.0000 C   0  0  0  0  0  0  0  0  0  0  0  0
   -6.0000   -2.5981    0.0000 C   0  0  0  0  0  0  0  0  0  0  0  0
   -5.2500   -3.8971    0.0000 C   0  0  0  0  0  0  0  0  0  0  0  0
   -6.0000   -5.1962    0.0000 O   0  0  0  0  0  0  0  0  0  0  0  0
   -3.7500   -3.8971    0.0000 C   0  0  0  0  0  0  0  0  0  0  0  0
   -3.0000   -2.5981    0.0000 C   0  0  0  0  0  0  0  0  0  0  0  0
   -3.7500    1.2990    0.0000 C   0  0  0  0  0  0  0  0  0  0  0  0
   -3.0000    2.5981    0.0000 C   0  0  0  0  0  0  0  0  0  0  0  0
   -3.7500    3.8971    0.0000 C   0  0  0  0  0  0  0  0  0  0  0  0
   -3.0000    5.1962    0.0000 C   0  0  0  0  0  0  0  0  0  0  0  0
   -3.7500    6.4952    0.0000 N   0  0  0  0  0  0  0  0  0  0  0  0
   -3.0000    7.7942    0.0000 N   0  0  0  0  0  0  0  0  0  0  0  0
   -3.6101    9.1645    0.0000 N   0  0  0  0  0  0  0  0  0  0  0  0
   -2.4954   10.1682    0.0000 N   0  0  0  0  0  0  0  0  0  0  0  0
   -1.1963    9.4182    0.0000 N   0  0  0  0  0  0  0  0  0  0  0  0
   -1.5082    7.9510    0.0000 C   0  0  0  0  0  0  0  0  0  0  0  0
   -0.5045    6.8363    0.0000 C   0  0  0  0  0  0  0  0  0  0  0  0
   -5.2500    3.8971    0.0000 C   0  0  0  0  0  0  0  0  0  0  0  0
   -6.0000    2.5981    0.0000 C   0  0  0  0  0  0  0  0  0  0  0  0
   -5.2500    1.2990    0.0000 C   0  0  0  0  0  0  0  0  0  0  0  0
   -6.0000   -0.0000    0.0000 O   0  0  0  0  0  0  0  0  0  0  0  0
   -0.7500   -1.2990    0.0000 C   0  0  0  0  0  0  0  0  0  0  0  0
  1  2  1  0
  2  3  2  0
  3  4  1  0
  4  5  2  0
  5  6  1  0
  6  7  1  0
  7  8  2  3
  8  9  1  0
  9 10  2  0
 10 11  1  0
 11 12  2  0
 12 13  1  0
 12 14  1  0
 14 15  1  0
 15 16  1  0
 16 17  2  0
 17 18  1  0
 18 19  2  0
 19 20  1  0
 19 21  1  0
 21 22  2  0
 15 23  1  0
 23 24  2  0
 24 25  1  0
 25 26  1  0
 26 27  2  3
 27 28  1  0
 28 29  1  0
 29 30  2  0
 30 31  1  0
 31 32  2  0
 32 33  1  0
 25 34  2  0
 34 35  1  0
 35 36  2  0
 36 37  1  0
 14 38  2  0
  6  2  1  0
 38  9  1  0
 22 16  1  0
 36 23  1  0
 32 28  1  0
M  END
>  <Synonyms>  (216) 
MDT-637|VP-14637

>  <Research Codes>  (216) 
nan

>  <Phase>  (216) 
1

>  <Applicants>  (216) 
nan

>  <USAN Stem>  (216) 
nan

>  <USAN Year>  (216) 
nan

>  <USAN Stem Definition>  (216) 
nan

>  <USAN Stem Substem>  (216) 
nan

>  <First Approval>  (216) 
nan

>  <ATC Codes>  (216) 
nan

>  <Level 4 ATC Codes>  (216) 
nan

>  <Level 3 ATC Codes>  (216) 
nan

>  <Level 2 ATC Codes>  (216) 
nan

>  <Level 1 ATC Codes>  (216) 
nan

>  <Indication Class>  (216) 
nan

>  <Patent>  (216) 
nan

>  <Drug Type>  (216) 
1:Synthetic Small Molecule

>  <Passes Rule of Five>  (216) 
False

>  <First In Class>  (216) 
False

>  <Chirality>  (216) 
Achiral Molecule

>  <Prodrug>  (216) 
False

>  <Oral>  (216) 
False

>  <Parenteral>  (216) 
False

>  <Topical>  (216) 
False

>  <Black Box>  (216) 
False

>  <Availability Type>  (216) 
Unknown

>  <Withdrawn Year>  (216) 
nan

>  <Withdrawn Reason>  (216) 
nan

>  <Withdrawn Country>  (216) 
nan

>  <Withdrawn Class>  (216) 
nan

>  <SMILES>  (216) 
Cc1nnnn1N=Cc1ccc(O)c(C(c2ccc(O)cc2)c2cc(C=Nn3nnnc3C)ccc2O)c1

>  <InChi Key>  (216) 
BLUJRJMLDHEMRX-UHFFFAOYSA-N

$$$$
CHEMBL4297458
     RDKit          2D

 37 42  0  0  0  0  0  0  0  0999 V2000
   -0.5773   -4.2803    0.0000 C   0  0  0  0  0  0  0  0  0  0  0  0
    0.8899   -3.9684    0.0000 C   0  0  0  0  0  0  0  0  0  0  0  0
    2.0046   -4.9721    0.0000 N   0  0  0  0  0  0  0  0  0  0  0  0
    3.3037   -4.2221    0.0000 N   0  0  0  0  0  0  0  0  0  0  0  0
    2.9918   -2.7549    0.0000 N   0  0  0  0  0  0  0  0  0  0  0  0
    3.9955   -1.6402    0.0000 C   0  0  0  0  0  0  0  0  0  0  0  0
    1.5000   -2.5981    0.0000 C   0  0  0  0  0  0  0  0  0  0  0  0
    0.7500   -1.2990    0.0000 C   0  0  0  0  0  0  0  0  0  0  0  0
    1.5000    0.0000    0.0000 C   0  0  0  0  0  0  0  0  0  0  0  0
    0.7500    1.2990    0.0000 N   0  0  0  0  0  0  0  0  0  0  0  0
   -0.7500    1.2990    0.0000 C   0  0  0  0  0  0  0  0  0  0  0  0
   -1.7537    2.4138    0.0000 C   0  0  0  0  0  0  0  0  0  0  0  0
   -1.5969    3.9055    0.0000 C   0  0  0  0  0  0  0  0  0  0  0  0
   -2.8104    4.7872    0.0000 C   0  0  0  0  0  0  0  0  0  0  0  0
   -4.1807    4.1771    0.0000 C   0  0  0  0  0  0  0  0  0  0  0  0
   -5.3943    5.0588    0.0000 C   0  0  0  0  0  0  0  0  0  0  0  0
   -6.2760    3.8453    0.0000 C   0  0  0  0  0  0  0  0  0  0  0  0
   -4.5126    6.2723    0.0000 C   0  0  0  0  0  0  0  0  0  0  0  0
   -6.6078    5.9405    0.0000 O   0  0  0  0  0  0  0  0  0  0  0  0
   -4.3375    2.6853    0.0000 C   0  0  0  0  0  0  0  0  0  0  0  0
   -3.1240    1.8037    0.0000 C   0  0  0  0  0  0  0  0  0  0  0  0
   -2.9672    0.3119    0.0000 N   0  0  0  0  0  0  0  0  0  0  0  0
   -4.0819   -0.6918    0.0000 C   0  0  0  0  0  0  0  0  0  0  0  0
   -3.7701   -2.1590    0.0000 C   0  0  0  0  0  0  0  0  0  0  0  0
   -4.8848   -3.1627    0.0000 C   0  0  0  0  0  0  0  0  0  0  0  0
   -4.5729   -4.6300    0.0000 C   0  0  0  0  0  0  0  0  0  0  0  0
   -3.1463   -5.0935    0.0000 C   0  0  0  0  0  0  0  0  0  0  0  0
   -2.0316   -4.0898    0.0000 C   0  0  0  0  0  0  0  0  0  0  0  0
   -2.3435   -2.6226    0.0000 C   0  0  0  0  0  0  0  0  0  0  0  0
   -5.5085   -0.2283    0.0000 C   0  0  0  0  0  0  0  0  0  0  0  0
   -5.8204    1.2389    0.0000 C   0  0  0  0  0  0  0  0  0  0  0  0
   -7.2470    1.7024    0.0000 C   0  0  0  0  0  0  0  0  0  0  0  0
   -8.3617    0.6987    0.0000 O   0  0  0  0  0  0  0  0  0  0  0  0
   -8.0498   -0.7685    0.0000 C   0  0  0  0  0  0  0  0  0  0  0  0
   -6.6232   -1.2320    0.0000 C   0  0  0  0  0  0  0  0  0  0  0  0
   -1.5000    0.0000    0.0000 C   0  0  0  0  0  0  0  0  0  0  0  0
   -0.7500   -1.2990    0.0000 C   0  0  0  0  0  0  0  0  0  0  0  0
  1  2  1  0
  2  3  1  0
  3  4  2  0
  4  5  1  0
  5  6  1  0
  5  7  1  0
  7  8  1  0
  8  9  2  0
  9 10  1  0
 10 11  2  0
 11 12  1  0
 12 13  2  0
 13 14  1  0
 14 15  2  0
 15 16  1  0
 16 17  1  0
 16 18  1  0
 16 19  1  0
 15 20  1  0
 20 21  2  0
 21 22  1  0
 22 23  1  0
 23 24  1  6
 24 25  2  0
 25 26  1  0
 26 27  2  0
 27 28  1  0
 28 29  2  0
 23 30  1  0
 30 31  1  0
 31 32  1  0
 32 33  1  0
 33 34  1  0
 34 35  1  0
 22 36  1  0
 36 37  2  0
  7  2  2  0
 37  8  1  0
 36 11  1  0
 21 12  1  0
 29 24  1  0
 35 30  1  0
M  END
>  <Synonyms>  (217) 
BMS-986158

>  <Research Codes>  (217) 
BMS-986158

>  <Phase>  (217) 
1

>  <Applicants>  (217) 
nan

>  <USAN Stem>  (217) 
nan

>  <USAN Year>  (217) 
nan

>  <USAN Stem Definition>  (217) 
nan

>  <USAN Stem Substem>  (217) 
nan

>  <First Approval>  (217) 
nan

>  <ATC Codes>  (217) 
nan

>  <Level 4 ATC Codes>  (217) 
nan

>  <Level 3 ATC Codes>  (217) 
nan

>  <Level 2 ATC Codes>  (217) 
nan

>  <Level 1 ATC Codes>  (217) 
nan

>  <Indication Class>  (217) 
nan

>  <Patent>  (217) 
nan

>  <Drug Type>  (217) 
1:Synthetic Small Molecule

>  <Passes Rule of Five>  (217) 
False

>  <First In Class>  (217) 
False

>  <Chirality>  (217) 
Single Stereoisomer

>  <Prodrug>  (217) 
False

>  <Oral>  (217) 
False

>  <Parenteral>  (217) 
False

>  <Topical>  (217) 
False

>  <Black Box>  (217) 
False

>  <Availability Type>  (217) 
Unknown

>  <Withdrawn Year>  (217) 
nan

>  <Withdrawn Reason>  (217) 
nan

>  <Withdrawn Country>  (217) 
nan

>  <Withdrawn Class>  (217) 
nan

>  <SMILES>  (217) 
Cc1nnn(C)c1-c1cnc2c3ccc(C(C)(C)O)cc3n([C@H](c3ccccc3)C3CCOCC3)c2c1

>  <InChi Key>  (217) 
KGERZPVQIRYWRK-GDLZYMKVSA-N

$$$$
CHEMBL4297595
     RDKit          2D

 38 41  0  0  0  0  0  0  0  0999 V2000
   -7.4108   -8.0730    0.0000 N   0  0  0  0  0  0  0  0  0  0  0  0
   -6.2961   -7.0693    0.0000 C   0  0  0  0  0  0  0  0  0  0  0  0
   -5.1814   -6.0656    0.0000 C   0  0  0  0  0  0  0  0  0  0  0  0
   -3.7548   -6.5291    0.0000 C   0  0  0  0  0  0  0  0  0  0  0  0
   -2.6401   -5.5255    0.0000 N   0  0  0  0  0  0  0  0  0  0  0  0
   -1.2135   -5.9890    0.0000 C   0  0  0  0  0  0  0  0  0  0  0  0
   -0.7500   -7.4156    0.0000 N   0  0  0  0  0  0  0  0  0  0  0  0
    0.7500   -7.4156    0.0000 O   0  0  0  0  0  0  0  0  0  0  0  0
    1.2135   -5.9890    0.0000 N   0  0  0  0  0  0  0  0  0  0  0  0
    0.0000   -5.1073    0.0000 C   0  0  0  0  0  0  0  0  0  0  0  0
    0.0000   -3.6073    0.0000 C   0  0  0  0  0  0  0  0  0  0  0  0
    1.2135   -2.7256    0.0000 N   0  0  0  0  0  0  0  0  0  0  0  0
    0.7500   -1.2990    0.0000 C   0  0  0  0  0  0  0  0  0  0  0  0
    1.5000    0.0000    0.0000 C   0  0  0  0  0  0  0  0  0  0  0  0
    0.7500    1.2990    0.0000 C   0  0  0  0  0  0  0  0  0  0  0  0
   -0.7500    1.2990    0.0000 C   0  0  0  0  0  0  0  0  0  0  0  0
   -1.5000    0.0000    0.0000 C   0  0  0  0  0  0  0  0  0  0  0  0
   -0.7500   -1.2990    0.0000 C   0  0  0  0  0  0  0  0  0  0  0  0
   -1.2135   -2.7256    0.0000 N   0  0  0  0  0  0  0  0  0  0  0  0
   -2.6401   -3.1891    0.0000 C   0  0  0  0  0  0  0  0  0  0  0  0
   -3.7548   -2.1855    0.0000 C   0  0  0  0  0  0  0  0  0  0  0  0
   -3.4430   -0.7182    0.0000 O   0  0  0  0  0  0  0  0  0  0  0  0
   -5.1814   -2.6490    0.0000 C   0  0  0  0  0  0  0  0  0  0  0  0
   -6.2961   -1.6453    0.0000 C   0  0  0  0  0  0  0  0  0  0  0  0
   -7.7227   -2.1088    0.0000 C   0  0  0  0  0  0  0  0  0  0  0  0
   -8.0346   -3.5760    0.0000 C   0  0  0  0  0  0  0  0  0  0  0  0
   -9.4612   -4.0396    0.0000 N   0  0  0  0  0  0  0  0  0  0  0  0
  -10.5759   -3.0359    0.0000 C   0  0  0  0  0  0  0  0  0  0  0  0
  -10.2640   -1.5686    0.0000 O   0  0  0  0  0  0  0  0  0  0  0  0
  -12.0025   -3.4994    0.0000 C   0  0  0  0  0  0  0  0  0  0  0  0
  -12.3143   -4.9666    0.0000 N   0  0  0  0  0  0  0  0  0  0  0  0
  -13.1172   -2.4957    0.0000 C   0  0  0  0  0  0  0  0  0  0  0  0
  -14.5438   -2.9592    0.0000 C   0  0  0  0  0  0  0  0  0  0  0  0
  -15.6585   -1.9555    0.0000 C   0  0  0  0  0  0  0  0  0  0  0  0
  -17.0851   -2.4190    0.0000 C   0  0  0  0  0  0  0  0  0  0  0  0
  -18.1998   -1.4153    0.0000 N   0  0  0  0  0  0  0  0  0  0  0  0
   -6.9199   -4.5797    0.0000 C   0  0  0  0  0  0  0  0  0  0  0  0
   -5.4933   -4.1162    0.0000 C   0  0  0  0  0  0  0  0  0  0  0  0
  1  2  3  0
  2  3  1  0
  3  4  1  0
  4  5  1  0
  5  6  2  3
  6  7  1  0
  7  8  1  0
  8  9  1  0
  9 10  2  0
 10 11  1  0
 11 12  2  0
 12 13  1  0
 13 14  2  0
 14 15  1  0
 15 16  2  0
 16 17  1  0
 17 18  2  0
 18 19  1  0
 19 20  1  0
 20 21  1  0
 21 22  2  0
 21 23  1  0
 23 24  2  0
 24 25  1  0
 25 26  2  0
 26 27  1  0
 27 28  1  0
 28 29  2  0
 28 30  1  0
 30 31  1  0
 30 32  1  0
 32 33  1  0
 33 34  1  0
 34 35  1  0
 35 36  1  0
 26 37  1  0
 37 38  2  0
 10  6  1  0
 19 11  1  0
 38 23  1  0
 18 13  1  0
M  END
>  <Synonyms>  (218) 
BAL 101553|BAL-101553|BAL101553|LISAVANBULIN|MICROTUBULE-TARGETED AGENT BAL101553

>  <Research Codes>  (218) 
BAL 101553|BAL-101553|BAL101553|MICROTUBULE-TARGETED AGENT BAL101553

>  <Phase>  (218) 
1

>  <Applicants>  (218) 
nan

>  <USAN Stem>  (218) 
'-bulin'

>  <USAN Year>  (218) 
2018.0

>  <USAN Stem Definition>  (218) 
antineoplastics (mitotic inhibitors,tubulin binders

>  <USAN Stem Substem>  (218) 
'-bulin(-bulin)'

>  <First Approval>  (218) 
nan

>  <ATC Codes>  (218) 
nan

>  <Level 4 ATC Codes>  (218) 
nan

>  <Level 3 ATC Codes>  (218) 
nan

>  <Level 2 ATC Codes>  (218) 
nan

>  <Level 1 ATC Codes>  (218) 
nan

>  <Indication Class>  (218) 
nan

>  <Patent>  (218) 
nan

>  <Drug Type>  (218) 
1:Synthetic Small Molecule

>  <Passes Rule of Five>  (218) 
False

>  <First In Class>  (218) 
False

>  <Chirality>  (218) 
Single Stereoisomer

>  <Prodrug>  (218) 
False

>  <Oral>  (218) 
False

>  <Parenteral>  (218) 
False

>  <Topical>  (218) 
False

>  <Black Box>  (218) 
False

>  <Availability Type>  (218) 
Unknown

>  <Withdrawn Year>  (218) 
nan

>  <Withdrawn Reason>  (218) 
nan

>  <Withdrawn Country>  (218) 
nan

>  <Withdrawn Class>  (218) 
nan

>  <SMILES>  (218) 
N#CCCNc1nonc1-c1nc2ccccc2n1CC(=O)c1ccc(NC(=O)[C@@H](N)CCCCN)cc1

>  <InChi Key>  (218) 
NIPZLALJRAHABJ-UHFFFAOYSA-N

$$$$
CHEMBL4297507
     RDKit          2D

 23 26  0  0  0  0  0  0  0  0999 V2000
   -6.2181    4.0533    0.0000 C   0  0  0  0  0  0  0  0  0  0  0  0
   -6.6816    2.6267    0.0000 C   0  0  0  0  0  0  0  0  0  0  0  0
   -8.0181    1.9457    0.0000 C   0  0  0  0  0  0  0  0  0  0  0  0
   -7.3371    0.6092    0.0000 N   0  0  0  0  0  0  0  0  0  0  0  0
   -7.8007   -0.8174    0.0000 C   0  0  0  0  0  0  0  0  0  0  0  0
   -6.7970   -1.9321    0.0000 O   0  0  0  0  0  0  0  0  0  0  0  0
   -9.2679   -1.1293    0.0000 C   0  0  0  0  0  0  0  0  0  0  0  0
   -9.7314   -2.5559    0.0000 C   0  0  0  0  0  0  0  0  0  0  0  0
  -10.1949   -3.9824    0.0000 N   0  0  0  0  0  0  0  0  0  0  0  0
   -6.0006    1.2902    0.0000 C   0  0  0  0  0  0  0  0  0  0  0  0
   -5.5371   -0.1364    0.0000 C   0  0  0  0  0  0  0  0  0  0  0  0
   -4.0371   -0.1364    0.0000 C   0  0  0  0  0  0  0  0  0  0  0  0
   -3.5736    1.2902    0.0000 N   0  0  0  0  0  0  0  0  0  0  0  0
   -2.1470    1.7537    0.0000 C   0  0  0  0  0  0  0  0  0  0  0  0
   -1.8351    3.2209    0.0000 N   0  0  0  0  0  0  0  0  0  0  0  0
   -0.4086    3.6844    0.0000 C   0  0  0  0  0  0  0  0  0  0  0  0
    0.7062    2.6807    0.0000 N   0  0  0  0  0  0  0  0  0  0  0  0
    0.3943    1.2135    0.0000 C   0  0  0  0  0  0  0  0  0  0  0  0
    1.2760    0.0000    0.0000 N   0  0  0  0  0  0  0  0  0  0  0  0
    0.3943   -1.2135    0.0000 C   0  0  0  0  0  0  0  0  0  0  0  0
   -1.0323   -0.7500    0.0000 C   0  0  0  0  0  0  0  0  0  0  0  0
   -1.0323    0.7500    0.0000 C   0  0  0  0  0  0  0  0  0  0  0  0
   -4.7871    2.1718    0.0000 C   0  0  0  0  0  0  0  0  0  0  0  0
  2  1  1  6
  2  3  1  0
  3  4  1  0
  4  5  1  0
  5  6  2  0
  5  7  1  0
  7  8  1  0
  8  9  3  0
  4 10  1  0
 10 11  1  1
 11 12  1  0
 12 13  1  0
 13 14  1  0
 14 15  2  0
 15 16  1  0
 16 17  2  0
 17 18  1  0
 18 19  1  0
 19 20  1  0
 20 21  2  0
 21 22  1  0
 13 23  1  0
 10  2  1  0
 22 14  1  0
 23 10  1  0
 22 18  2  0
M  END
>  <Synonyms>  (219) 
DELGOCITINIB|JTE-052|JTE-052A|LEO 124249|LEO 124249A|LEO-124249|LEO-124249A

>  <Research Codes>  (219) 
JTE-052|JTE-052A|LEO 124249|LEO 124249A|LEO-124249|LEO-124249A

>  <Phase>  (219) 
1

>  <Applicants>  (219) 
nan

>  <USAN Stem>  (219) 
'-tinib'

>  <USAN Year>  (219) 
2017.0

>  <USAN Stem Definition>  (219) 
tyrosine kinase inhibitors: janus kinase inhibitors

>  <USAN Stem Substem>  (219) 
'-tinib(-tinib (-citinib))'

>  <First Approval>  (219) 
nan

>  <ATC Codes>  (219) 
nan

>  <Level 4 ATC Codes>  (219) 
nan

>  <Level 3 ATC Codes>  (219) 
nan

>  <Level 2 ATC Codes>  (219) 
nan

>  <Level 1 ATC Codes>  (219) 
nan

>  <Indication Class>  (219) 
nan

>  <Patent>  (219) 
nan

>  <Drug Type>  (219) 
1:Synthetic Small Molecule

>  <Passes Rule of Five>  (219) 
True

>  <First In Class>  (219) 
False

>  <Chirality>  (219) 
Single Stereoisomer

>  <Prodrug>  (219) 
False

>  <Oral>  (219) 
False

>  <Parenteral>  (219) 
False

>  <Topical>  (219) 
False

>  <Black Box>  (219) 
False

>  <Availability Type>  (219) 
Unknown

>  <Withdrawn Year>  (219) 
nan

>  <Withdrawn Reason>  (219) 
nan

>  <Withdrawn Country>  (219) 
nan

>  <Withdrawn Class>  (219) 
nan

>  <SMILES>  (219) 
C[C@H]1CN(C(=O)CC#N)[C@]12CCN(c1ncnc3[nH]ccc13)C2

>  <InChi Key>  (219) 
LOWWYYZBZNSPDT-ZBEGNZNMSA-N

$$$$
CHEMBL4297623
     RDKit          2D

 30 32  0  0  0  0  0  0  0  0999 V2000
    7.4146   -6.0524    0.0000 N   0  0  0  0  0  0  0  0  0  0  0  0
    6.2011   -6.9341    0.0000 C   0  0  0  0  0  0  0  0  0  0  0  0
    6.3579   -8.4259    0.0000 O   0  0  0  0  0  0  0  0  0  0  0  0
    4.8308   -6.3240    0.0000 C   0  0  0  0  0  0  0  0  0  0  0  0
    4.6740   -4.8322    0.0000 C   0  0  0  0  0  0  0  0  0  0  0  0
    3.3037   -4.2221    0.0000 N   0  0  0  0  0  0  0  0  0  0  0  0
    2.0046   -4.9721    0.0000 C   0  0  0  0  0  0  0  0  0  0  0  0
    0.8899   -3.9684    0.0000 N   0  0  0  0  0  0  0  0  0  0  0  0
    1.5000   -2.5981    0.0000 C   0  0  0  0  0  0  0  0  0  0  0  0
    0.7500   -1.2990    0.0000 C   0  0  0  0  0  0  0  0  0  0  0  0
    1.5000    0.0000    0.0000 C   0  0  0  0  0  0  0  0  0  0  0  0
    0.7500    1.2990    0.0000 C   0  0  0  0  0  0  0  0  0  0  0  0
    1.5000    2.5981    0.0000 C   0  0  0  0  0  0  0  0  0  0  0  0
    2.2500    3.8971    0.0000 F   0  0  0  0  0  0  0  0  0  0  0  0
    2.7990    1.8481    0.0000 F   0  0  0  0  0  0  0  0  0  0  0  0
    0.2010    3.3481    0.0000 F   0  0  0  0  0  0  0  0  0  0  0  0
   -0.7500    1.2990    0.0000 C   0  0  0  0  0  0  0  0  0  0  0  0
   -1.5000    0.0000    0.0000 C   0  0  0  0  0  0  0  0  0  0  0  0
   -3.0000    0.0000    0.0000 C   0  0  0  0  0  0  0  0  0  0  0  0
   -4.5000    0.0000    0.0000 F   0  0  0  0  0  0  0  0  0  0  0  0
   -3.0000    1.5000    0.0000 F   0  0  0  0  0  0  0  0  0  0  0  0
   -3.0000   -1.5000    0.0000 F   0  0  0  0  0  0  0  0  0  0  0  0
   -0.7500   -1.2990    0.0000 C   0  0  0  0  0  0  0  0  0  0  0  0
    2.9918   -2.7549    0.0000 N   0  0  0  0  0  0  0  0  0  0  0  0
    3.6172   -7.2057    0.0000 C   0  0  0  0  0  0  0  0  0  0  0  0
    2.2469   -6.5956    0.0000 C   0  0  0  0  0  0  0  0  0  0  0  0
    1.0334   -7.4772    0.0000 N   0  0  0  0  0  0  0  0  0  0  0  0
    1.1902   -8.9690    0.0000 C   0  0  0  0  0  0  0  0  0  0  0  0
    2.5605   -9.5791    0.0000 N   0  0  0  0  0  0  0  0  0  0  0  0
    3.7740   -8.6974    0.0000 C   0  0  0  0  0  0  0  0  0  0  0  0
  1  2  1  0
  2  3  2  0
  2  4  1  0
  4  5  2  0
  5  6  1  0
  6  7  1  0
  7  8  2  0
  8  9  1  0
  9 10  1  0
 10 11  2  0
 11 12  1  0
 12 13  1  0
 13 14  1  0
 13 15  1  0
 13 16  1  0
 12 17  2  0
 17 18  1  0
 18 19  1  0
 19 20  1  0
 19 21  1  0
 19 22  1  0
 18 23  2  0
  9 24  2  0
  4 25  1  0
 25 26  2  0
 26 27  1  0
 27 28  2  0
 28 29  1  0
 29 30  2  0
 24  6  1  0
 30 25  1  0
 23 10  1  0
M  END
>  <Synonyms>  (220) 
ELTANEXOR|KPT-8602

>  <Research Codes>  (220) 
KPT-8602

>  <Phase>  (220) 
1

>  <Applicants>  (220) 
nan

>  <USAN Stem>  (220) 
'-nexor'

>  <USAN Year>  (220) 
2018.0

>  <USAN Stem Definition>  (220) 
exportin 1 inhibitors

>  <USAN Stem Substem>  (220) 
'-nexor(-nexor)'

>  <First Approval>  (220) 
nan

>  <ATC Codes>  (220) 
nan

>  <Level 4 ATC Codes>  (220) 
nan

>  <Level 3 ATC Codes>  (220) 
nan

>  <Level 2 ATC Codes>  (220) 
nan

>  <Level 1 ATC Codes>  (220) 
nan

>  <Indication Class>  (220) 
nan

>  <Patent>  (220) 
nan

>  <Drug Type>  (220) 
1:Synthetic Small Molecule

>  <Passes Rule of Five>  (220) 
True

>  <First In Class>  (220) 
False

>  <Chirality>  (220) 
Achiral Molecule

>  <Prodrug>  (220) 
False

>  <Oral>  (220) 
False

>  <Parenteral>  (220) 
False

>  <Topical>  (220) 
False

>  <Black Box>  (220) 
False

>  <Availability Type>  (220) 
Unknown

>  <Withdrawn Year>  (220) 
nan

>  <Withdrawn Reason>  (220) 
nan

>  <Withdrawn Country>  (220) 
nan

>  <Withdrawn Class>  (220) 
nan

>  <SMILES>  (220) 
NC(=O)/C(=C/n1cnc(-c2cc(C(F)(F)F)cc(C(F)(F)F)c2)n1)c1cncnc1

>  <InChi Key>  (220) 
JFBAVWVBLRIWHM-AWNIVKPZSA-N

$$$$
CHEMBL4297640
     RDKit          2D

 36 39  0  0  0  0  0  0  0  0999 V2000
    3.7500   -1.2990    0.0000 N   0  0  0  0  0  0  0  0  0  0  0  0
    3.0000    0.0000    0.0000 C   0  0  0  0  0  0  0  0  0  0  0  0
    3.7500    1.2990    0.0000 O   0  0  0  0  0  0  0  0  0  0  0  0
    1.5000    0.0000    0.0000 C   0  0  0  0  0  0  0  0  0  0  0  0
    0.7500   -1.2990    0.0000 C   0  0  0  0  0  0  0  0  0  0  0  0
   -0.7500   -1.2990    0.0000 C   0  0  0  0  0  0  0  0  0  0  0  0
   -1.5000    0.0000    0.0000 N   0  0  0  0  0  0  0  0  0  0  0  0
   -3.0000    0.0000    0.0000 C   0  0  0  0  0  0  0  0  0  0  0  0
   -3.7500    1.2990    0.0000 N   0  0  0  0  0  0  0  0  0  0  0  0
   -5.2500    1.2990    0.0000 C   0  0  0  0  0  0  0  0  0  0  0  0
   -6.0000    0.0000    0.0000 N   0  0  0  0  0  0  0  0  0  0  0  0
   -5.2500   -1.2990    0.0000 C   0  0  0  0  0  0  0  0  0  0  0  0
   -6.0000   -2.5981    0.0000 N   0  0  0  0  0  0  0  0  0  0  0  0
   -3.7500   -1.2990    0.0000 C   0  0  0  0  0  0  0  0  0  0  0  0
   -3.0000   -2.5981    0.0000 F   0  0  0  0  0  0  0  0  0  0  0  0
   -0.7500    1.2990    0.0000 C   0  0  0  0  0  0  0  0  0  0  0  0
    0.7500    1.2990    0.0000 C   0  0  0  0  0  0  0  0  0  0  0  0
    1.5000    2.5981    0.0000 N   0  0  0  0  0  0  0  0  0  0  0  0
    3.0000    2.5981    0.0000 C   0  0  0  0  0  0  0  0  0  0  0  0
    3.7500    3.8971    0.0000 C   0  0  0  0  0  0  0  0  0  0  0  0
    3.0000    5.1962    0.0000 C   0  0  0  0  0  0  0  0  0  0  0  0
    1.5000    5.1962    0.0000 C   0  0  0  0  0  0  0  0  0  0  0  0
    0.7500    6.4952    0.0000 N   0  0  0  0  0  0  0  0  0  0  0  0
    1.5000    7.7942    0.0000 C   0  0  0  0  0  0  0  0  0  0  0  0
    3.0000    7.7942    0.0000 C   0  0  0  0  0  0  0  0  0  0  0  0
    3.7500    9.0933    0.0000 C   0  0  0  0  0  0  0  0  0  0  0  0
    5.2500    9.0933    0.0000 Cl  0  0  0  0  0  0  0  0  0  0  0  0
    3.0000   10.3923    0.0000 C   0  0  0  0  0  0  0  0  0  0  0  0
    1.5000   10.3923    0.0000 C   0  0  0  0  0  0  0  0  0  0  0  0
    0.7500   11.6913    0.0000 C   0  0  0  0  0  0  0  0  0  0  0  0
    0.0000   12.9904    0.0000 F   0  0  0  0  0  0  0  0  0  0  0  0
    2.0490   12.4413    0.0000 F   0  0  0  0  0  0  0  0  0  0  0  0
   -0.5490   10.9413    0.0000 F   0  0  0  0  0  0  0  0  0  0  0  0
    0.7500    9.0933    0.0000 C   0  0  0  0  0  0  0  0  0  0  0  0
    0.7500    3.8971    0.0000 C   0  0  0  0  0  0  0  0  0  0  0  0
   -0.7500    3.8971    0.0000 O   0  0  0  0  0  0  0  0  0  0  0  0
  1  2  1  0
  2  3  2  0
  2  4  1  0
  4  5  1  0
  5  6  1  0
  6  7  1  0
  7  8  1  0
  8  9  1  0
  9 10  2  0
 10 11  1  0
 11 12  1  0
 12 13  2  0
 12 14  1  0
 14 15  1  0
  7 16  1  0
 16 17  1  0
 17 18  1  6
 18 19  1  0
 19 20  1  0
 20 21  1  0
 21 22  1  0
 22 23  1  0
 23 24  1  0
 24 25  2  0
 25 26  1  0
 26 27  1  0
 26 28  2  0
 28 29  1  0
 29 30  1  0
 30 31  1  0
 30 32  1  0
 30 33  1  0
 29 34  2  0
 22 35  1  0
 35 36  2  0
 17  4  1  0
 35 18  1  0
 14  8  2  0
 34 24  1  0
M  END
>  <Synonyms>  (221) 
BIIB-062|BSK-4841|FP-0182|FP0182|SNS-062|VECABRUTINIB

>  <Research Codes>  (221) 
BIIB-062|BSK-4841|FP-0182|FP0182|SNS-062

>  <Phase>  (221) 
1

>  <Applicants>  (221) 
nan

>  <USAN Stem>  (221) 
'-tinib'

>  <USAN Year>  (221) 
2018.0

>  <USAN Stem Definition>  (221) 
tyrosine kinase inhibitors: Bruton's (Btk) inhibitors

>  <USAN Stem Substem>  (221) 
'-tinib(-tinib (-brutinib))'

>  <First Approval>  (221) 
nan

>  <ATC Codes>  (221) 
nan

>  <Level 4 ATC Codes>  (221) 
nan

>  <Level 3 ATC Codes>  (221) 
nan

>  <Level 2 ATC Codes>  (221) 
nan

>  <Level 1 ATC Codes>  (221) 
nan

>  <Indication Class>  (221) 
nan

>  <Patent>  (221) 
nan

>  <Drug Type>  (221) 
1:Synthetic Small Molecule

>  <Passes Rule of Five>  (221) 
False

>  <First In Class>  (221) 
False

>  <Chirality>  (221) 
Single Stereoisomer

>  <Prodrug>  (221) 
False

>  <Oral>  (221) 
False

>  <Parenteral>  (221) 
False

>  <Topical>  (221) 
False

>  <Black Box>  (221) 
False

>  <Availability Type>  (221) 
Unknown

>  <Withdrawn Year>  (221) 
nan

>  <Withdrawn Reason>  (221) 
nan

>  <Withdrawn Country>  (221) 
nan

>  <Withdrawn Class>  (221) 
nan

>  <SMILES>  (221) 
NC(=O)[C@H]1CCN(c2ncnc(N)c2F)C[C@@H]1N1CCC[C@@H](Nc2cc(Cl)cc(C(F)(F)F)c2)C1=O

>  <InChi Key>  (221) 
QLRRJMOBVVGXEJ-GPANFISMSA-N

$$$$
CHEMBL3098771
     RDKit          2D

 22 23  0  0  0  0  0  0  0  0999 V2000
   -3.0000   -5.1962    0.0000 C   0  0  0  0  0  0  0  0  0  0  0  0
   -3.7500   -3.8971    0.0000 C   0  0  0  0  0  0  0  0  0  0  0  0
   -5.2500   -3.8971    0.0000 C   0  0  0  0  0  0  0  0  0  0  0  0
   -6.0000   -2.5981    0.0000 C   0  0  0  0  0  0  0  0  0  0  0  0
   -7.5000   -2.5981    0.0000 C   0  0  0  0  0  0  0  0  0  0  0  0
   -8.2500   -1.2990    0.0000 C   0  0  0  0  0  0  0  0  0  0  0  0
   -9.7500   -1.2990    0.0000 C   0  0  0  0  0  0  0  0  0  0  0  0
   -7.5000   -0.0000    0.0000 C   0  0  0  0  0  0  0  0  0  0  0  0
   -8.2500    1.2990    0.0000 C   0  0  0  0  0  0  0  0  0  0  0  0
   -9.7500    1.2990    0.0000 O   0  0  0  0  0  0  0  0  0  0  0  0
   -7.5000    2.5981    0.0000 O   0  0  0  0  0  0  0  0  0  0  0  0
   -3.0000   -2.5981    0.0000 C   0  0  0  0  0  0  0  0  0  0  0  0
   -1.5000   -2.5981    0.0000 C   0  0  0  0  0  0  0  0  0  0  0  0
   -0.7500   -3.8971    0.0000 C   0  0  0  0  0  0  0  0  0  0  0  0
    0.7500   -3.8971    0.0000 C   0  0  0  0  0  0  0  0  0  0  0  0
    1.5000   -2.5981    0.0000 C   0  0  0  0  0  0  0  0  0  0  0  0
    0.7500   -1.2990    0.0000 C   0  0  0  0  0  0  0  0  0  0  0  0
    1.5000    0.0000    0.0000 C   0  0  0  0  0  0  0  0  0  0  0  0
    0.7500    1.2990    0.0000 C   0  0  0  0  0  0  0  0  0  0  0  0
   -0.7500    1.2990    0.0000 C   0  0  0  0  0  0  0  0  0  0  0  0
   -1.5000    0.0000    0.0000 C   0  0  0  0  0  0  0  0  0  0  0  0
   -0.7500   -1.2990    0.0000 C   0  0  0  0  0  0  0  0  0  0  0  0
  1  2  1  0
  2  3  2  0
  3  4  1  0
  4  5  2  0
  5  6  1  0
  6  7  1  0
  6  8  2  3
  8  9  1  0
  9 10  2  0
  9 11  1  0
  2 12  1  0
 12 13  2  0
 13 14  1  0
 14 15  1  0
 15 16  1  0
 16 17  1  0
 17 18  2  0
 18 19  1  0
 19 20  2  0
 20 21  1  0
 21 22  2  0
 22 13  1  0
 22 17  1  0
M  END
>  <Synonyms>  (222) 
9-CIS-UAB30|9CUAB30|RETINOID 9CUAB30|UAB-30|UAB30

>  <Research Codes>  (222) 
9-CIS-UAB30|9CUAB30|UAB-30

>  <Phase>  (222) 
1

>  <Applicants>  (222) 
nan

>  <USAN Stem>  (222) 
nan

>  <USAN Year>  (222) 
nan

>  <USAN Stem Definition>  (222) 
nan

>  <USAN Stem Substem>  (222) 
nan

>  <First Approval>  (222) 
nan

>  <ATC Codes>  (222) 
nan

>  <Level 4 ATC Codes>  (222) 
nan

>  <Level 3 ATC Codes>  (222) 
nan

>  <Level 2 ATC Codes>  (222) 
nan

>  <Level 1 ATC Codes>  (222) 
nan

>  <Indication Class>  (222) 
nan

>  <Patent>  (222) 
nan

>  <Drug Type>  (222) 
7:Natural Product-derived

>  <Passes Rule of Five>  (222) 
True

>  <First In Class>  (222) 
False

>  <Chirality>  (222) 
Achiral Molecule

>  <Prodrug>  (222) 
False

>  <Oral>  (222) 
False

>  <Parenteral>  (222) 
False

>  <Topical>  (222) 
False

>  <Black Box>  (222) 
False

>  <Availability Type>  (222) 
Unknown

>  <Withdrawn Year>  (222) 
nan

>  <Withdrawn Reason>  (222) 
nan

>  <Withdrawn Country>  (222) 
nan

>  <Withdrawn Class>  (222) 
nan

>  <SMILES>  (222) 
CC(=C/C=C/C(C)=C/C(=O)O)/C=C1\CCCc2ccccc21

>  <InChi Key>  (222) 
PPGNMFUMZSAZCW-LZCWUTEYSA-N

$$$$
CHEMBL3967849
     RDKit          2D

 32 35  0  0  0  0  0  0  0  0999 V2000
    3.7500   -1.2990    0.0000 C   0  0  0  0  0  0  0  0  0  0  0  0
    3.0000    0.0000    0.0000 C   0  0  0  0  0  0  0  0  0  0  0  0
    3.7500    1.2990    0.0000 O   0  0  0  0  0  0  0  0  0  0  0  0
    1.5000    0.0000    0.0000 N   0  0  0  0  0  0  0  0  0  0  0  0
    0.7500   -1.2990    0.0000 C   0  0  0  0  0  0  0  0  0  0  0  0
   -0.7500   -1.2990    0.0000 C   0  0  0  0  0  0  0  0  0  0  0  0
   -1.5000    0.0000    0.0000 C   0  0  0  0  0  0  0  0  0  0  0  0
   -2.9672    0.3119    0.0000 C   0  0  0  0  0  0  0  0  0  0  0  0
   -4.0819   -0.6918    0.0000 C   0  0  0  0  0  0  0  0  0  0  0  0
   -3.7701   -2.1590    0.0000 O   0  0  0  0  0  0  0  0  0  0  0  0
   -5.5085   -0.2283    0.0000 N   0  0  0  0  0  0  0  0  0  0  0  0
   -5.8204    1.2389    0.0000 C   0  0  0  0  0  0  0  0  0  0  0  0
   -7.2470    1.7024    0.0000 C   0  0  0  0  0  0  0  0  0  0  0  0
   -8.3617    0.6987    0.0000 C   0  0  0  0  0  0  0  0  0  0  0  0
   -9.7883    1.1623    0.0000 C   0  0  0  0  0  0  0  0  0  0  0  0
  -10.1001    2.6295    0.0000 C   0  0  0  0  0  0  0  0  0  0  0  0
  -11.5267    3.0930    0.0000 C   0  0  0  0  0  0  0  0  0  0  0  0
  -12.6414    2.0893    0.0000 C   0  0  0  0  0  0  0  0  0  0  0  0
  -14.0680    2.5529    0.0000 F   0  0  0  0  0  0  0  0  0  0  0  0
  -12.3296    0.6221    0.0000 C   0  0  0  0  0  0  0  0  0  0  0  0
  -13.4443   -0.3816    0.0000 F   0  0  0  0  0  0  0  0  0  0  0  0
  -10.9030    0.1586    0.0000 C   0  0  0  0  0  0  0  0  0  0  0  0
  -10.5911   -1.3086    0.0000 C   0  0  0  0  0  0  0  0  0  0  0  0
  -10.2793   -2.7759    0.0000 F   0  0  0  0  0  0  0  0  0  0  0  0
  -12.0583   -1.6205    0.0000 F   0  0  0  0  0  0  0  0  0  0  0  0
   -9.1239   -0.9968    0.0000 F   0  0  0  0  0  0  0  0  0  0  0  0
   -8.0498   -0.7685    0.0000 C   0  0  0  0  0  0  0  0  0  0  0  0
   -6.6232   -1.2320    0.0000 C   0  0  0  0  0  0  0  0  0  0  0  0
   -3.1240    1.8037    0.0000 N   0  0  0  0  0  0  0  0  0  0  0  0
   -1.7537    2.4138    0.0000 N   0  0  0  0  0  0  0  0  0  0  0  0
   -0.7500    1.2990    0.0000 C   0  0  0  0  0  0  0  0  0  0  0  0
    0.7500    1.2990    0.0000 C   0  0  0  0  0  0  0  0  0  0  0  0
  1  2  1  0
  2  3  2  0
  2  4  1  0
  4  5  1  0
  5  6  1  0
  6  7  1  0
  7  8  1  0
  8  9  1  0
  9 10  2  0
  9 11  1  0
 11 12  1  0
 12 13  1  0
 13 14  1  0
 14 15  1  0
 15 16  2  0
 16 17  1  0
 17 18  2  0
 18 19  1  0
 18 20  1  0
 20 21  1  0
 20 22  2  0
 22 23  1  0
 23 24  1  0
 23 25  1  0
 23 26  1  0
 14 27  1  0
 27 28  1  0
  8 29  2  0
 29 30  1  0
 30 31  1  0
 31 32  1  0
 32  4  1  0
 31  7  2  0
 28 11  1  0
 22 15  1  0
M  END
>  <Synonyms>  (223) 
LBS-008

>  <Research Codes>  (223) 
nan

>  <Phase>  (223) 
1

>  <Applicants>  (223) 
nan

>  <USAN Stem>  (223) 
nan

>  <USAN Year>  (223) 
nan

>  <USAN Stem Definition>  (223) 
nan

>  <USAN Stem Substem>  (223) 
nan

>  <First Approval>  (223) 
nan

>  <ATC Codes>  (223) 
nan

>  <Level 4 ATC Codes>  (223) 
nan

>  <Level 3 ATC Codes>  (223) 
nan

>  <Level 2 ATC Codes>  (223) 
nan

>  <Level 1 ATC Codes>  (223) 
nan

>  <Indication Class>  (223) 
nan

>  <Patent>  (223) 
nan

>  <Drug Type>  (223) 
1:Synthetic Small Molecule

>  <Passes Rule of Five>  (223) 
True

>  <First In Class>  (223) 
False

>  <Chirality>  (223) 
Achiral Molecule

>  <Prodrug>  (223) 
False

>  <Oral>  (223) 
False

>  <Parenteral>  (223) 
False

>  <Topical>  (223) 
False

>  <Black Box>  (223) 
False

>  <Availability Type>  (223) 
Unknown

>  <Withdrawn Year>  (223) 
nan

>  <Withdrawn Reason>  (223) 
nan

>  <Withdrawn Country>  (223) 
nan

>  <Withdrawn Class>  (223) 
nan

>  <SMILES>  (223) 
CC(=O)N1CCc2c(C(=O)N3CCC(c4ccc(F)c(F)c4C(F)(F)F)CC3)n[nH]c2C1

>  <InChi Key>  (223) 
HAGSLCBZFRRBLS-UHFFFAOYSA-N

$$$$
CHEMBL25263
     RDKit          2D

 24 25  0  0  0  0  0  0  0  0999 V2000
    3.5260   -1.2990    0.0000 O   0  0  0  0  0  0  0  0  0  0  0  0
    2.7760    0.0000    0.0000 C   0  0  0  0  0  0  0  0  0  0  0  0
    3.5260    1.2990    0.0000 O   0  0  0  0  0  0  0  0  0  0  0  0
    1.2760    0.0000    0.0000 C   0  0  0  0  0  0  0  0  0  0  0  0
    0.3943    1.2135    0.0000 C   0  0  0  0  0  0  0  0  0  0  0  0
   -1.0323    0.7500    0.0000 C   0  0  0  0  0  0  0  0  0  0  0  0
   -1.0323   -0.7500    0.0000 C   0  0  0  0  0  0  0  0  0  0  0  0
    0.3943   -1.2135    0.0000 N   0  0  0  0  0  0  0  0  0  0  0  0
    0.8578   -2.6401    0.0000 C   0  0  0  0  0  0  0  0  0  0  0  0
    2.3250   -2.9520    0.0000 O   0  0  0  0  0  0  0  0  0  0  0  0
   -0.1459   -3.7548    0.0000 C   0  0  0  0  0  0  0  0  0  0  0  0
    0.3177   -5.1814    0.0000 C   0  0  0  0  0  0  0  0  0  0  0  0
   -0.6860   -6.2961    0.0000 C   0  0  0  0  0  0  0  0  0  0  0  0
   -0.2225   -7.7227    0.0000 C   0  0  0  0  0  0  0  0  0  0  0  0
   -1.2262   -8.8374    0.0000 C   0  0  0  0  0  0  0  0  0  0  0  0
   -2.6934   -8.5256    0.0000 O   0  0  0  0  0  0  0  0  0  0  0  0
   -0.7627  -10.2640    0.0000 N   0  0  0  0  0  0  0  0  0  0  0  0
    0.6639  -10.7275    0.0000 C   0  0  0  0  0  0  0  0  0  0  0  0
    0.6639  -12.2275    0.0000 C   0  0  0  0  0  0  0  0  0  0  0  0
   -0.7627  -12.6911    0.0000 C   0  0  0  0  0  0  0  0  0  0  0  0
   -1.6444  -11.4775    0.0000 C   0  0  0  0  0  0  0  0  0  0  0  0
   -3.1444  -11.4775    0.0000 C   0  0  0  0  0  0  0  0  0  0  0  0
   -3.8944  -12.7766    0.0000 O   0  0  0  0  0  0  0  0  0  0  0  0
   -3.8944  -10.1785    0.0000 O   0  0  0  0  0  0  0  0  0  0  0  0
  1  2  2  0
  2  3  1  0
  2  4  1  0
  4  5  1  0
  5  6  1  0
  6  7  1  0
  7  8  1  0
  8  9  1  0
  9 10  2  0
  9 11  1  0
 11 12  1  0
 12 13  1  0
 13 14  1  0
 14 15  1  0
 15 16  2  0
 15 17  1  0
 17 18  1  0
 18 19  1  0
 19 20  1  0
 20 21  1  0
 21 22  1  0
 22 23  2  0
 22 24  1  0
  8  4  1  0
 21 17  1  0
M  END
>  <Synonyms>  (224) 
CPHPC|GSK-2315698|GSK2315698|MIRIDESAP|RO 63-8695|RO-638695

>  <Research Codes>  (224) 
CPHPC|GSK-2315698|GSK2315698|RO 63-8695|RO-638695

>  <Phase>  (224) 
1

>  <Applicants>  (224) 
nan

>  <USAN Stem>  (224) 
'-sap'

>  <USAN Year>  (224) 
2018.0

>  <USAN Stem Definition>  (224) 
serum amyloid P (SAP) inhibitors

>  <USAN Stem Substem>  (224) 
'-sap(-sap)'

>  <First Approval>  (224) 
nan

>  <ATC Codes>  (224) 
nan

>  <Level 4 ATC Codes>  (224) 
nan

>  <Level 3 ATC Codes>  (224) 
nan

>  <Level 2 ATC Codes>  (224) 
nan

>  <Level 1 ATC Codes>  (224) 
nan

>  <Indication Class>  (224) 
nan

>  <Patent>  (224) 
nan

>  <Drug Type>  (224) 
1:Synthetic Small Molecule

>  <Passes Rule of Five>  (224) 
True

>  <First In Class>  (224) 
False

>  <Chirality>  (224) 
Single Stereoisomer

>  <Prodrug>  (224) 
False

>  <Oral>  (224) 
False

>  <Parenteral>  (224) 
False

>  <Topical>  (224) 
False

>  <Black Box>  (224) 
False

>  <Availability Type>  (224) 
Unknown

>  <Withdrawn Year>  (224) 
nan

>  <Withdrawn Reason>  (224) 
nan

>  <Withdrawn Country>  (224) 
nan

>  <Withdrawn Class>  (224) 
nan

>  <SMILES>  (224) 
O=C(O)[C@H]1CCCN1C(=O)CCCCC(=O)N1CCC[C@@H]1C(=O)O

>  <InChi Key>  (224) 
HZLAWYIBLZNRFZ-UHFFFAOYSA-N

$$$$
CHEMBL2177913
     RDKit          2D

 32 36  0  0  0  0  0  0  0  0999 V2000
   -2.6401   -3.1891    0.0000 N   0  0  0  0  0  0  0  0  0  0  0  0
   -1.2135   -2.7256    0.0000 C   0  0  0  0  0  0  0  0  0  0  0  0
   -0.0000   -3.6073    0.0000 N   0  0  0  0  0  0  0  0  0  0  0  0
    1.2135   -2.7256    0.0000 C   0  0  0  0  0  0  0  0  0  0  0  0
    2.5838   -2.1155    0.0000 C   0  0  0  0  0  0  0  0  0  0  0  0
    3.7974   -2.9972    0.0000 C   0  0  0  0  0  0  0  0  0  0  0  0
    5.1677   -2.3871    0.0000 C   0  0  0  0  0  0  0  0  0  0  0  0
    5.3245   -0.8953    0.0000 C   0  0  0  0  0  0  0  0  0  0  0  0
    4.1110   -0.0136    0.0000 C   0  0  0  0  0  0  0  0  0  0  0  0
    4.2677    1.4782    0.0000 C   0  0  0  0  0  0  0  0  0  0  0  0
    5.6381    2.0883    0.0000 C   0  0  0  0  0  0  0  0  0  0  0  0
    5.7949    3.5800    0.0000 N   0  0  0  0  0  0  0  0  0  0  0  0
    4.5813    4.4617    0.0000 C   0  0  0  0  0  0  0  0  0  0  0  0
    3.2110    3.8516    0.0000 N   0  0  0  0  0  0  0  0  0  0  0  0
    3.0542    2.3598    0.0000 C   0  0  0  0  0  0  0  0  0  0  0  0
    2.7406   -0.6237    0.0000 C   0  0  0  0  0  0  0  0  0  0  0  0
    1.9635   -4.0247    0.0000 C   0  0  0  0  0  0  0  0  0  0  0  0
    1.2135   -5.3237    0.0000 C   0  0  0  0  0  0  0  0  0  0  0  0
    1.9635   -6.6227    0.0000 C   0  0  0  0  0  0  0  0  0  0  0  0
    3.4635   -6.6227    0.0000 N   0  0  0  0  0  0  0  0  0  0  0  0
    4.2135   -5.3237    0.0000 C   0  0  0  0  0  0  0  0  0  0  0  0
    5.7135   -5.3237    0.0000 C   0  0  0  0  0  0  0  0  0  0  0  0
    6.4635   -6.6227    0.0000 F   0  0  0  0  0  0  0  0  0  0  0  0
    6.4635   -4.0247    0.0000 F   0  0  0  0  0  0  0  0  0  0  0  0
    3.4635   -4.0247    0.0000 C   0  0  0  0  0  0  0  0  0  0  0  0
    0.7500   -1.2990    0.0000 C   0  0  0  0  0  0  0  0  0  0  0  0
    1.5000    0.0000    0.0000 C   0  0  0  0  0  0  0  0  0  0  0  0
    0.7500    1.2990    0.0000 C   0  0  0  0  0  0  0  0  0  0  0  0
   -0.7500    1.2990    0.0000 C   0  0  0  0  0  0  0  0  0  0  0  0
   -1.5000    0.0000    0.0000 C   0  0  0  0  0  0  0  0  0  0  0  0
   -3.0000    0.0000    0.0000 F   0  0  0  0  0  0  0  0  0  0  0  0
   -0.7500   -1.2990    0.0000 C   0  0  0  0  0  0  0  0  0  0  0  0
  1  2  2  0
  2  3  1  0
  3  4  1  0
  4  5  1  1
  5  6  2  0
  6  7  1  0
  7  8  2  0
  8  9  1  0
  9 10  1  0
 10 11  2  0
 11 12  1  0
 12 13  2  0
 13 14  1  0
 14 15  2  0
  9 16  2  0
  4 17  1  0
 17 18  2  0
 18 19  1  0
 19 20  2  0
 20 21  1  0
 21 22  1  0
 22 23  1  0
 22 24  1  0
 21 25  2  0
  4 26  1  0
 26 27  2  0
 27 28  1  0
 28 29  2  0
 29 30  1  0
 30 31  1  0
 30 32  2  0
 32  2  1  0
 16  5  1  0
 25 17  1  0
 32 26  1  0
 15 10  1  0
M  END
>  <Synonyms>  (225) 
AZD 3839|AZD-3839|AZD3839

>  <Research Codes>  (225) 
AZD3839

>  <Phase>  (225) 
1

>  <Applicants>  (225) 
nan

>  <USAN Stem>  (225) 
nan

>  <USAN Year>  (225) 
nan

>  <USAN Stem Definition>  (225) 
nan

>  <USAN Stem Substem>  (225) 
nan

>  <First Approval>  (225) 
nan

>  <ATC Codes>  (225) 
nan

>  <Level 4 ATC Codes>  (225) 
nan

>  <Level 3 ATC Codes>  (225) 
nan

>  <Level 2 ATC Codes>  (225) 
nan

>  <Level 1 ATC Codes>  (225) 
nan

>  <Indication Class>  (225) 
nan

>  <Patent>  (225) 
nan

>  <Drug Type>  (225) 
1:Synthetic Small Molecule

>  <Passes Rule of Five>  (225) 
True

>  <First In Class>  (225) 
False

>  <Chirality>  (225) 
Single Stereoisomer

>  <Prodrug>  (225) 
False

>  <Oral>  (225) 
False

>  <Parenteral>  (225) 
False

>  <Topical>  (225) 
False

>  <Black Box>  (225) 
False

>  <Availability Type>  (225) 
Unknown

>  <Withdrawn Year>  (225) 
nan

>  <Withdrawn Reason>  (225) 
nan

>  <Withdrawn Country>  (225) 
nan

>  <Withdrawn Class>  (225) 
nan

>  <SMILES>  (225) 
NC1=N[C@@](c2cccc(-c3cncnc3)c2)(c2ccnc(C(F)F)c2)c2cccc(F)c21

>  <InChi Key>  (225) 
MRXBCEQZNKUUIP-DEOSSOPVSA-N

$$$$
CHEMBL1173532
     RDKit          2D

 18 20  0  0  0  0  0  0  0  0999 V2000
    3.3481   -4.2990    0.0000 C   0  0  0  0  0  0  0  0  0  0  0  0
    2.0490   -3.5490    0.0000 O   0  0  0  0  0  0  0  0  0  0  0  0
    2.0490   -2.0490    0.0000 C   0  0  0  0  0  0  0  0  0  0  0  0
    0.7500   -1.2990    0.0000 C   0  0  0  0  0  0  0  0  0  0  0  0
    1.5000    0.0000    0.0000 C   0  0  0  0  0  0  0  0  0  0  0  0
    0.7500    1.2990    0.0000 N   0  0  0  0  0  0  0  0  0  0  0  0
   -0.7500    1.2990    0.0000 C   0  0  0  0  0  0  0  0  0  0  0  0
   -1.5000    0.0000    0.0000 C   0  0  0  0  0  0  0  0  0  0  0  0
   -0.7500   -1.2990    0.0000 C   0  0  0  0  0  0  0  0  0  0  0  0
    0.5490   -0.5490    0.0000 C   0  0  0  0  0  0  0  0  0  0  0  0
    1.8481   -1.2990    0.0000 C   0  0  0  0  0  0  0  0  0  0  0  0
    3.1471   -0.5490    0.0000 C   0  0  0  0  0  0  0  0  0  0  0  0
    3.1471    0.9510    0.0000 C   0  0  0  0  0  0  0  0  0  0  0  0
    4.4462    1.7010    0.0000 Cl  0  0  0  0  0  0  0  0  0  0  0  0
    1.8481    1.7010    0.0000 C   0  0  0  0  0  0  0  0  0  0  0  0
    1.8481    3.2010    0.0000 Cl  0  0  0  0  0  0  0  0  0  0  0  0
    0.5490    0.9510    0.0000 C   0  0  0  0  0  0  0  0  0  0  0  0
   -0.0000   -2.5981    0.0000 C   0  0  0  0  0  0  0  0  0  0  0  0
  1  2  1  0
  2  3  1  0
  4  3  1  6
  4  5  1  0
  5  6  1  0
  6  7  1  0
  7  8  1  0
  8  9  1  0
  9 10  1  6
 10 11  2  0
 11 12  1  0
 12 13  2  0
 13 14  1  0
 13 15  1  0
 15 16  1  0
 15 17  2  0
  9 18  1  0
  9  4  1  0
 17 10  1  0
 18  4  1  0
M  END
>  <Synonyms>  (226) 
nan

>  <Research Codes>  (226) 
nan

>  <Phase>  (226) 
1

>  <Applicants>  (226) 
nan

>  <USAN Stem>  (226) 
nan

>  <USAN Year>  (226) 
nan

>  <USAN Stem Definition>  (226) 
nan

>  <USAN Stem Substem>  (226) 
nan

>  <First Approval>  (226) 
nan

>  <ATC Codes>  (226) 
nan

>  <Level 4 ATC Codes>  (226) 
nan

>  <Level 3 ATC Codes>  (226) 
nan

>  <Level 2 ATC Codes>  (226) 
nan

>  <Level 1 ATC Codes>  (226) 
nan

>  <Indication Class>  (226) 
nan

>  <Patent>  (226) 
nan

>  <Drug Type>  (226) 
1:Synthetic Small Molecule

>  <Passes Rule of Five>  (226) 
True

>  <First In Class>  (226) 
False

>  <Chirality>  (226) 
Unknown

>  <Prodrug>  (226) 
False

>  <Oral>  (226) 
False

>  <Parenteral>  (226) 
False

>  <Topical>  (226) 
False

>  <Black Box>  (226) 
False

>  <Availability Type>  (226) 
Unknown

>  <Withdrawn Year>  (226) 
nan

>  <Withdrawn Reason>  (226) 
nan

>  <Withdrawn Country>  (226) 
nan

>  <Withdrawn Class>  (226) 
nan

>  <SMILES>  (226) 
COC[C@@]12CNCC[C@]1(c1ccc(Cl)c(Cl)c1)C2

>  <InChi Key>  (226) 
ICXJGCSEMJXNQF-ZIAGYGMSSA-N

$$$$
CHEMBL1880349
     RDKit          2D

 11 11  0  0  0  0  0  0  0  0999 V2000
    3.7500   -1.2990    0.0000 O   0  0  0  0  0  0  0  0  0  0  0  0
    3.0000    0.0000    0.0000 C   0  0  0  0  0  0  0  0  0  0  0  0
    1.5000    0.0000    0.0000 C   0  0  0  0  0  0  0  0  0  0  0  0
    0.7500   -1.2990    0.0000 O   0  0  0  0  0  0  0  0  0  0  0  0
   -0.7500   -1.2990    0.0000 C   0  0  0  0  0  0  0  0  0  0  0  0
   -1.5000   -2.5981    0.0000 O   0  0  0  0  0  0  0  0  0  0  0  0
   -1.5000    0.0000    0.0000 C   0  0  0  0  0  0  0  0  0  0  0  0
   -0.7500    1.2990    0.0000 C   0  0  0  0  0  0  0  0  0  0  0  0
   -1.5000    2.5981    0.0000 O   0  0  0  0  0  0  0  0  0  0  0  0
    0.7500    1.2990    0.0000 C   0  0  0  0  0  0  0  0  0  0  0  0
    1.5000    2.5981    0.0000 O   0  0  0  0  0  0  0  0  0  0  0  0
  1  2  1  0
  2  3  1  0
  3  4  1  0
  4  5  1  0
  5  6  1  0
  5  7  1  0
  7  8  1  0
  8  9  1  0
  8 10  1  0
 10 11  1  0
 10  3  1  0
M  END
>  <Synonyms>  (227) 
2-DEOXY-D-GLUCOSE|2-Deoxy-D-glucose|BA 2758|BA-2758|NSC-15193

>  <Research Codes>  (227) 
BA 2758|BA-2758|NSC-15193

>  <Phase>  (227) 
1

>  <Applicants>  (227) 
nan

>  <USAN Stem>  (227) 
nan

>  <USAN Year>  (227) 
nan

>  <USAN Stem Definition>  (227) 
nan

>  <USAN Stem Substem>  (227) 
nan

>  <First Approval>  (227) 
nan

>  <ATC Codes>  (227) 
nan

>  <Level 4 ATC Codes>  (227) 
nan

>  <Level 3 ATC Codes>  (227) 
nan

>  <Level 2 ATC Codes>  (227) 
nan

>  <Level 1 ATC Codes>  (227) 
nan

>  <Indication Class>  (227) 
nan

>  <Patent>  (227) 
nan

>  <Drug Type>  (227) 
7:Natural Product-derived

>  <Passes Rule of Five>  (227) 
True

>  <First In Class>  (227) 
False

>  <Chirality>  (227) 
Achiral Molecule

>  <Prodrug>  (227) 
False

>  <Oral>  (227) 
False

>  <Parenteral>  (227) 
False

>  <Topical>  (227) 
False

>  <Black Box>  (227) 
False

>  <Availability Type>  (227) 
Unknown

>  <Withdrawn Year>  (227) 
nan

>  <Withdrawn Reason>  (227) 
nan

>  <Withdrawn Country>  (227) 
nan

>  <Withdrawn Class>  (227) 
nan

>  <SMILES>  (227) 
OCC1OC(O)CC(O)C1O

>  <InChi Key>  (227) 
PMMURAAUARKVCB-UHFFFAOYSA-N

$$$$
CHEMBL1823518
     RDKit          2D

 36 38  0  0  0  0  0  0  0  0999 V2000
    5.0260   -1.2990    0.0000 C   0  0  0  0  0  0  0  0  0  0  0  0
    6.5260   -1.2990    0.0000 C   0  0  0  0  0  0  0  0  0  0  0  0
    7.2760    0.0000    0.0000 O   0  0  0  0  0  0  0  0  0  0  0  0
    8.7760    0.0000    0.0000 C   0  0  0  0  0  0  0  0  0  0  0  0
    9.5260   -1.2990    0.0000 O   0  0  0  0  0  0  0  0  0  0  0  0
    9.5260    1.2990    0.0000 C   0  0  0  0  0  0  0  0  0  0  0  0
   11.0260    1.2990    0.0000 C   0  0  0  0  0  0  0  0  0  0  0  0
    8.7760    2.5981    0.0000 N   0  0  0  0  0  0  0  0  0  0  0  0
    7.2760    2.5981    0.0000 P   0  0  0  0  0  0  0  0  0  0  0  0
    7.2760    1.0981    0.0000 O   0  0  0  0  0  0  0  0  0  0  0  0
    5.7760    2.5981    0.0000 C   0  0  0  0  0  0  0  0  0  0  0  0
    5.0260    1.2990    0.0000 O   0  0  0  0  0  0  0  0  0  0  0  0
    3.5260    1.2990    0.0000 C   0  0  0  0  0  0  0  0  0  0  0  0
    2.7760    0.0000    0.0000 C   0  0  0  0  0  0  0  0  0  0  0  0
    1.2760    0.0000    0.0000 N   0  0  0  0  0  0  0  0  0  0  0  0
    0.3943    1.2135    0.0000 C   0  0  0  0  0  0  0  0  0  0  0  0
   -1.0323    0.7500    0.0000 N   0  0  0  0  0  0  0  0  0  0  0  0
   -1.0323   -0.7500    0.0000 C   0  0  0  0  0  0  0  0  0  0  0  0
   -2.1470   -1.7537    0.0000 C   0  0  0  0  0  0  0  0  0  0  0  0
   -3.5736   -1.2902    0.0000 N   0  0  0  0  0  0  0  0  0  0  0  0
   -4.6883   -2.2939    0.0000 C   0  0  0  0  0  0  0  0  0  0  0  0
   -5.1518   -3.7205    0.0000 C   0  0  0  0  0  0  0  0  0  0  0  0
   -6.1555   -2.6057    0.0000 C   0  0  0  0  0  0  0  0  0  0  0  0
   -1.8351   -3.2209    0.0000 N   0  0  0  0  0  0  0  0  0  0  0  0
   -0.4086   -3.6844    0.0000 C   0  0  0  0  0  0  0  0  0  0  0  0
   -0.0967   -5.1517    0.0000 N   0  0  0  0  0  0  0  0  0  0  0  0
    0.7062   -2.6807    0.0000 N   0  0  0  0  0  0  0  0  0  0  0  0
    0.3943   -1.2135    0.0000 C   0  0  0  0  0  0  0  0  0  0  0  0
    7.2760    4.0981    0.0000 N   0  0  0  0  0  0  0  0  0  0  0  0
    8.5750    4.8481    0.0000 C   0  0  0  0  0  0  0  0  0  0  0  0
    8.5750    6.3481    0.0000 C   0  0  0  0  0  0  0  0  0  0  0  0
    9.8741    4.0981    0.0000 C   0  0  0  0  0  0  0  0  0  0  0  0
    9.8741    2.5981    0.0000 O   0  0  0  0  0  0  0  0  0  0  0  0
   11.1731    4.8481    0.0000 O   0  0  0  0  0  0  0  0  0  0  0  0
   12.4721    4.0981    0.0000 C   0  0  0  0  0  0  0  0  0  0  0  0
   13.7712    4.8481    0.0000 C   0  0  0  0  0  0  0  0  0  0  0  0
  1  2  1  0
  2  3  1  0
  3  4  1  0
  4  5  2  0
  4  6  1  0
  6  7  1  0
  6  8  1  0
  8  9  1  0
  9 10  2  0
  9 11  1  0
 11 12  1  0
 12 13  1  0
 13 14  1  0
 14 15  1  0
 15 16  1  0
 16 17  2  0
 17 18  1  0
 18 19  1  0
 19 20  2  3
 20 21  1  0
 21 22  1  0
 22 23  1  0
 19 24  1  0
 24 25  1  0
 25 26  2  0
 25 27  1  0
 27 28  1  0
  9 29  1  0
 29 30  1  0
 30 31  1  0
 30 32  1  0
 32 33  2  0
 32 34  1  0
 34 35  1  0
 35 36  1  0
 28 15  1  0
 28 18  2  0
 23 21  1  0
M  END
>  <Synonyms>  (228) 
GS-9219|RABACFOSADINE|VDC-1101

>  <Research Codes>  (228) 
GS-9219|VDC-1101

>  <Phase>  (228) 
1

>  <Applicants>  (228) 
nan

>  <USAN Stem>  (228) 
'-fos-'

>  <USAN Year>  (228) 
2014.0

>  <USAN Stem Definition>  (228) 
phosphoro-derivatives

>  <USAN Stem Substem>  (228) 
'-fos-(-fos-)'

>  <First Approval>  (228) 
nan

>  <ATC Codes>  (228) 
nan

>  <Level 4 ATC Codes>  (228) 
nan

>  <Level 3 ATC Codes>  (228) 
nan

>  <Level 2 ATC Codes>  (228) 
nan

>  <Level 1 ATC Codes>  (228) 
nan

>  <Indication Class>  (228) 
nan

>  <Patent>  (228) 
nan

>  <Drug Type>  (228) 
1:Synthetic Small Molecule

>  <Passes Rule of Five>  (228) 
False

>  <First In Class>  (228) 
False

>  <Chirality>  (228) 
Single Stereoisomer

>  <Prodrug>  (228) 
False

>  <Oral>  (228) 
False

>  <Parenteral>  (228) 
False

>  <Topical>  (228) 
False

>  <Black Box>  (228) 
False

>  <Availability Type>  (228) 
Unknown

>  <Withdrawn Year>  (228) 
nan

>  <Withdrawn Reason>  (228) 
nan

>  <Withdrawn Country>  (228) 
nan

>  <Withdrawn Class>  (228) 
nan

>  <SMILES>  (228) 
CCOC(=O)[C@H](C)NP(=O)(COCCn1cnc2c(NC3CC3)nc(N)nc21)N[C@@H](C)C(=O)OCC

>  <InChi Key>  (228) 
ANSPEDQTHURSFQ-UHFFFAOYSA-N

$$$$
CHEMBL1908397
     RDKit          2D

 25 28  0  0  0  0  0  0  0  0999 V2000
   -8.9702   -7.9777    0.0000 O   0  0  0  0  0  0  0  0  0  0  0  0
   -8.6583   -6.5105    0.0000 C   0  0  0  0  0  0  0  0  0  0  0  0
   -7.2317   -6.0469    0.0000 C   0  0  0  0  0  0  0  0  0  0  0  0
   -6.1170   -7.0506    0.0000 C   0  0  0  0  0  0  0  0  0  0  0  0
   -4.6904   -6.5871    0.0000 C   0  0  0  0  0  0  0  0  0  0  0  0
   -4.3786   -5.1199    0.0000 C   0  0  0  0  0  0  0  0  0  0  0  0
   -2.9520   -4.6564    0.0000 C   0  0  0  0  0  0  0  0  0  0  0  0
   -2.6401   -3.1891    0.0000 C   0  0  0  0  0  0  0  0  0  0  0  0
   -1.2135   -2.7256    0.0000 C   0  0  0  0  0  0  0  0  0  0  0  0
   -0.0000   -3.6073    0.0000 N   0  0  0  0  0  0  0  0  0  0  0  0
    1.2135   -2.7256    0.0000 N   0  0  0  0  0  0  0  0  0  0  0  0
    0.7500   -1.2990    0.0000 C   0  0  0  0  0  0  0  0  0  0  0  0
    1.5000    0.0000    0.0000 C   0  0  0  0  0  0  0  0  0  0  0  0
    0.7500    1.2990    0.0000 C   0  0  0  0  0  0  0  0  0  0  0  0
   -0.7500    1.2990    0.0000 C   0  0  0  0  0  0  0  0  0  0  0  0
   -1.5000    0.0000    0.0000 C   0  0  0  0  0  0  0  0  0  0  0  0
   -0.7500   -1.2990    0.0000 C   0  0  0  0  0  0  0  0  0  0  0  0
   -5.4933   -4.1162    0.0000 C   0  0  0  0  0  0  0  0  0  0  0  0
   -6.9199   -4.5797    0.0000 C   0  0  0  0  0  0  0  0  0  0  0  0
   -9.7730   -5.5068    0.0000 N   0  0  0  0  0  0  0  0  0  0  0  0
   -9.4612   -4.0396    0.0000 C   0  0  0  0  0  0  0  0  0  0  0  0
  -10.5759   -3.0359    0.0000 C   0  0  0  0  0  0  0  0  0  0  0  0
  -12.0025   -3.4994    0.0000 N   0  0  0  0  0  0  0  0  0  0  0  0
  -12.3143   -4.9666    0.0000 C   0  0  0  0  0  0  0  0  0  0  0  0
  -11.1996   -5.9703    0.0000 C   0  0  0  0  0  0  0  0  0  0  0  0
  1  2  2  0
  2  3  1  0
  3  4  2  0
  4  5  1  0
  5  6  2  0
  6  7  1  0
  7  8  2  3
  8  9  1  0
  9 10  1  0
 10 11  1  0
 11 12  2  0
 12 13  1  0
 13 14  2  0
 14 15  1  0
 15 16  2  0
 16 17  1  0
  6 18  1  0
 18 19  2  0
  2 20  1  0
 20 21  1  0
 21 22  1  0
 22 23  1  0
 23 24  1  0
 24 25  1  0
 19  3  1  0
 25 20  1  0
 17  9  2  0
 17 12  1  0
M  END
>  <Synonyms>  (229) 
KW 2449|KW-2449

>  <Research Codes>  (229) 
KW-2449

>  <Phase>  (229) 
1

>  <Applicants>  (229) 
nan

>  <USAN Stem>  (229) 
nan

>  <USAN Year>  (229) 
nan

>  <USAN Stem Definition>  (229) 
nan

>  <USAN Stem Substem>  (229) 
nan

>  <First Approval>  (229) 
nan

>  <ATC Codes>  (229) 
nan

>  <Level 4 ATC Codes>  (229) 
nan

>  <Level 3 ATC Codes>  (229) 
nan

>  <Level 2 ATC Codes>  (229) 
nan

>  <Level 1 ATC Codes>  (229) 
nan

>  <Indication Class>  (229) 
nan

>  <Patent>  (229) 
nan

>  <Drug Type>  (229) 
1:Synthetic Small Molecule

>  <Passes Rule of Five>  (229) 
True

>  <First In Class>  (229) 
False

>  <Chirality>  (229) 
Achiral Molecule

>  <Prodrug>  (229) 
False

>  <Oral>  (229) 
False

>  <Parenteral>  (229) 
False

>  <Topical>  (229) 
False

>  <Black Box>  (229) 
False

>  <Availability Type>  (229) 
Unknown

>  <Withdrawn Year>  (229) 
nan

>  <Withdrawn Reason>  (229) 
nan

>  <Withdrawn Country>  (229) 
nan

>  <Withdrawn Class>  (229) 
nan

>  <SMILES>  (229) 
O=C(c1ccc(/C=C/c2n[nH]c3ccccc23)cc1)N1CCNCC1

>  <InChi Key>  (229) 
YYLKKYCXAOBSRM-UHFFFAOYSA-N

$$$$
CHEMBL3806158
     RDKit          2D

 24 26  0  0  0  0  0  0  0  0999 V2000
    8.2500   -3.8971    0.0000 C   0  0  0  0  0  0  0  0  0  0  0  0
    7.5000   -2.5981    0.0000 C   0  0  0  0  0  0  0  0  0  0  0  0
    6.0000   -2.5981    0.0000 C   0  0  0  0  0  0  0  0  0  0  0  0
    5.2500   -1.2990    0.0000 C   0  0  0  0  0  0  0  0  0  0  0  0
    3.7500   -1.2990    0.0000 C   0  0  0  0  0  0  0  0  0  0  0  0
    3.0000    0.0000    0.0000 C   0  0  0  0  0  0  0  0  0  0  0  0
    1.5000    0.0000    0.0000 C   0  0  0  0  0  0  0  0  0  0  0  0
    0.7500   -1.2990    0.0000 C   0  0  0  0  0  0  0  0  0  0  0  0
   -0.7500   -1.2990    0.0000 C   0  0  0  0  0  0  0  0  0  0  0  0
   -1.5000    0.0000    0.0000 C   0  0  0  0  0  0  0  0  0  0  0  0
   -3.0000    0.0000    0.0000 C   0  0  0  0  0  0  0  0  0  0  0  0
   -3.7500    1.2990    0.0000 C   0  0  0  0  0  0  0  0  0  0  0  0
   -5.2500    1.2990    0.0000 C   0  0  0  0  0  0  0  0  0  0  0  0
   -6.1317    0.0855    0.0000 C   0  0  0  0  0  0  0  0  0  0  0  0
   -7.5583    0.5490    0.0000 C   0  0  0  0  0  0  0  0  0  0  0  0
   -7.5583    2.0490    0.0000 C   0  0  0  0  0  0  0  0  0  0  0  0
   -7.8701    3.5163    0.0000 N   0  0  0  0  0  0  0  0  0  0  0  0
   -9.0500    1.8922    0.0000 C   0  0  0  0  0  0  0  0  0  0  0  0
   -9.9317    3.1058    0.0000 O   0  0  0  0  0  0  0  0  0  0  0  0
   -6.1317    2.5126    0.0000 C   0  0  0  0  0  0  0  0  0  0  0  0
   -3.0000    2.5981    0.0000 C   0  0  0  0  0  0  0  0  0  0  0  0
   -1.5000    2.5981    0.0000 C   0  0  0  0  0  0  0  0  0  0  0  0
   -0.7500    1.2990    0.0000 C   0  0  0  0  0  0  0  0  0  0  0  0
    0.7500    1.2990    0.0000 C   0  0  0  0  0  0  0  0  0  0  0  0
  1  2  1  0
  2  3  1  0
  3  4  1  0
  4  5  1  0
  5  6  1  0
  7  6  1  6
  7  8  1  0
  8  9  1  0
  9 10  1  0
 10 11  2  0
 11 12  1  0
 13 12  1  1
 13 14  1  0
 14 15  1  0
 15 16  1  0
 16 17  1  1
 16 18  1  0
 18 19  1  0
 16 20  1  0
 12 21  2  0
 21 22  1  0
 22 23  2  0
 23 24  1  0
 24  7  1  0
 23 10  1  0
 20 13  1  0
M  END
>  <Synonyms>  (230) 
BMS-986104

>  <Research Codes>  (230) 
BMS-986104

>  <Phase>  (230) 
1

>  <Applicants>  (230) 
nan

>  <USAN Stem>  (230) 
nan

>  <USAN Year>  (230) 
nan

>  <USAN Stem Definition>  (230) 
nan

>  <USAN Stem Substem>  (230) 
nan

>  <First Approval>  (230) 
nan

>  <ATC Codes>  (230) 
nan

>  <Level 4 ATC Codes>  (230) 
nan

>  <Level 3 ATC Codes>  (230) 
nan

>  <Level 2 ATC Codes>  (230) 
nan

>  <Level 1 ATC Codes>  (230) 
nan

>  <Indication Class>  (230) 
nan

>  <Patent>  (230) 
nan

>  <Drug Type>  (230) 
1:Synthetic Small Molecule

>  <Passes Rule of Five>  (230) 
True

>  <First In Class>  (230) 
False

>  <Chirality>  (230) 
Single Stereoisomer

>  <Prodrug>  (230) 
False

>  <Oral>  (230) 
False

>  <Parenteral>  (230) 
False

>  <Topical>  (230) 
False

>  <Black Box>  (230) 
False

>  <Availability Type>  (230) 
Unknown

>  <Withdrawn Year>  (230) 
nan

>  <Withdrawn Reason>  (230) 
nan

>  <Withdrawn Country>  (230) 
nan

>  <Withdrawn Class>  (230) 
nan

>  <SMILES>  (230) 
CCCCCC[C@@H]1CCc2cc([C@H]3CC[C@](N)(CO)C3)ccc2C1

>  <InChi Key>  (230) 
BPMMYKAHRIEVDH-VOQZNFBZSA-N

$$$$
CHEMBL2165620
     RDKit          2D

 28 30  0  0  0  0  0  0  0  0999 V2000
    3.7500   -1.2990    0.0000 O   0  0  0  0  0  0  0  0  0  0  0  0
    3.0000    0.0000    0.0000 C   0  0  0  0  0  0  0  0  0  0  0  0
    3.7500    1.2990    0.0000 O   0  0  0  0  0  0  0  0  0  0  0  0
    1.5000    0.0000    0.0000 C   0  0  0  0  0  0  0  0  0  0  0  0
    0.7500   -1.2990    0.0000 C   0  0  0  0  0  0  0  0  0  0  0  0
   -0.7500   -1.2990    0.0000 C   0  0  0  0  0  0  0  0  0  0  0  0
   -1.5000    0.0000    0.0000 C   0  0  0  0  0  0  0  0  0  0  0  0
   -3.0000    0.0000    0.0000 N   0  0  0  0  0  0  0  0  0  0  0  0
   -3.7500    1.2990    0.0000 C   0  0  0  0  0  0  0  0  0  0  0  0
   -3.0000    2.5981    0.0000 O   0  0  0  0  0  0  0  0  0  0  0  0
   -5.2500    1.2990    0.0000 C   0  0  0  0  0  0  0  0  0  0  0  0
   -6.0000    2.5981    0.0000 C   0  0  0  0  0  0  0  0  0  0  0  0
   -7.5000    2.5981    0.0000 C   0  0  0  0  0  0  0  0  0  0  0  0
   -8.3817    1.3846    0.0000 C   0  0  0  0  0  0  0  0  0  0  0  0
   -9.8083    1.8481    0.0000 C   0  0  0  0  0  0  0  0  0  0  0  0
   -9.8083    3.3481    0.0000 C   0  0  0  0  0  0  0  0  0  0  0  0
   -8.3817    3.8116    0.0000 C   0  0  0  0  0  0  0  0  0  0  0  0
   -6.0000   -0.0000    0.0000 N   0  0  0  0  0  0  0  0  0  0  0  0
   -5.3899   -1.3703    0.0000 C   0  0  0  0  0  0  0  0  0  0  0  0
   -6.5046   -2.3740    0.0000 N   0  0  0  0  0  0  0  0  0  0  0  0
   -7.8037   -1.6240    0.0000 C   0  0  0  0  0  0  0  0  0  0  0  0
   -9.1740   -2.2341    0.0000 C   0  0  0  0  0  0  0  0  0  0  0  0
  -10.5443   -2.8442    0.0000 F   0  0  0  0  0  0  0  0  0  0  0  0
   -9.7841   -0.8638    0.0000 F   0  0  0  0  0  0  0  0  0  0  0  0
   -8.5639   -3.6044    0.0000 F   0  0  0  0  0  0  0  0  0  0  0  0
   -7.4918   -0.1568    0.0000 C   0  0  0  0  0  0  0  0  0  0  0  0
   -0.7500    1.2990    0.0000 N   0  0  0  0  0  0  0  0  0  0  0  0
    0.7500    1.2990    0.0000 C   0  0  0  0  0  0  0  0  0  0  0  0
  1  2  2  0
  2  3  1  0
  2  4  1  0
  4  5  1  0
  5  6  2  0
  6  7  1  0
  7  8  2  3
  8  9  1  0
  9 10  2  0
  9 11  1  0
 11 12  1  0
 12 13  1  0
 13 14  1  0
 14 15  1  0
 15 16  1  0
 16 17  1  0
 11 18  1  0
 18 19  1  0
 19 20  2  0
 20 21  1  0
 21 22  1  0
 22 23  1  0
 22 24  1  0
 22 25  1  0
 21 26  2  0
  7 27  1  0
 27 28  1  0
 28  4  2  0
 17 13  1  0
 26 18  1  0
M  END
>  <Synonyms>  (231) 
PF-04991532

>  <Research Codes>  (231) 
nan

>  <Phase>  (231) 
1

>  <Applicants>  (231) 
nan

>  <USAN Stem>  (231) 
nan

>  <USAN Year>  (231) 
nan

>  <USAN Stem Definition>  (231) 
nan

>  <USAN Stem Substem>  (231) 
nan

>  <First Approval>  (231) 
nan

>  <ATC Codes>  (231) 
nan

>  <Level 4 ATC Codes>  (231) 
nan

>  <Level 3 ATC Codes>  (231) 
nan

>  <Level 2 ATC Codes>  (231) 
nan

>  <Level 1 ATC Codes>  (231) 
nan

>  <Indication Class>  (231) 
nan

>  <Patent>  (231) 
nan

>  <Drug Type>  (231) 
1:Synthetic Small Molecule

>  <Passes Rule of Five>  (231) 
True

>  <First In Class>  (231) 
False

>  <Chirality>  (231) 
Single Stereoisomer

>  <Prodrug>  (231) 
False

>  <Oral>  (231) 
False

>  <Parenteral>  (231) 
False

>  <Topical>  (231) 
False

>  <Black Box>  (231) 
False

>  <Availability Type>  (231) 
Unknown

>  <Withdrawn Year>  (231) 
nan

>  <Withdrawn Reason>  (231) 
nan

>  <Withdrawn Country>  (231) 
nan

>  <Withdrawn Class>  (231) 
nan

>  <SMILES>  (231) 
O=C(O)c1ccc(NC(=O)[C@H](CC2CCCC2)n2cnc(C(F)(F)F)c2)nc1

>  <InChi Key>  (231) 
GKMLFBRLRVQVJO-UHFFFAOYSA-N

$$$$
CHEMBL262101
     RDKit          2D

 40 48  0  0  0  0  0  0  0  0999 V2000
    1.5000    0.0000    0.0000 C   0  0  0  0  0  0  0  0  0  0  0  0
    0.7500   -1.2990    0.0000 C   0  0  0  0  0  0  0  0  0  0  0  0
   -0.7500   -1.2990    0.0000 C   0  0  0  0  0  0  0  0  0  0  0  0
   -1.5000    0.0000    0.0000 C   0  0  0  0  0  0  0  0  0  0  0  0
   -0.7500    1.2990    0.0000 C   0  0  0  0  0  0  0  0  0  0  0  0
    0.7500    1.2990    0.0000 C   0  0  0  0  0  0  0  0  0  0  0  0
   -1.7537    2.4138    0.0000 C   0  0  0  0  0  0  0  0  0  0  0  0
   -3.1240    1.8037    0.0000 N   0  0  0  0  0  0  0  0  0  0  0  0
   -2.9672    0.3119    0.0000 C   0  0  0  0  0  0  0  0  0  0  0  0
   -4.5702   -0.7978    0.0000 N   0  0  0  0  0  0  0  0  0  0  0  0
   -6.0670   -0.8959    0.0000 C   0  0  0  0  0  0  0  0  0  0  0  0
   -7.4874   -0.4138    0.0000 N   0  0  0  0  0  0  0  0  0  0  0  0
   -8.6151    0.5752    0.0000 C   0  0  0  0  0  0  0  0  0  0  0  0
   -9.2786    1.9205    0.0000 N   0  0  0  0  0  0  0  0  0  0  0  0
   -9.3767    3.4173    0.0000 C   0  0  0  0  0  0  0  0  0  0  0  0
   -8.8945    4.8377    0.0000 N   0  0  0  0  0  0  0  0  0  0  0  0
   -7.9055    5.9655    0.0000 C   0  0  0  0  0  0  0  0  0  0  0  0
   -6.5602    6.6289    0.0000 N   0  0  0  0  0  0  0  0  0  0  0  0
   -5.0634    6.7270    0.0000 C   0  0  0  0  0  0  0  0  0  0  0  0
   -3.6430    6.2449    0.0000 N   0  0  0  0  0  0  0  0  0  0  0  0
   -2.5152    5.2559    0.0000 C   0  0  0  0  0  0  0  0  0  0  0  0
   -1.8518    3.9105    0.0000 N   0  0  0  0  0  0  0  0  0  0  0  0
   -2.2034    6.7231    0.0000 C   0  0  0  0  0  0  0  0  0  0  0  0
   -0.9043    7.4731    0.0000 C   0  0  0  0  0  0  0  0  0  0  0  0
   -0.9043    8.9731    0.0000 C   0  0  0  0  0  0  0  0  0  0  0  0
   -2.2034    9.7231    0.0000 C   0  0  0  0  0  0  0  0  0  0  0  0
   -3.5024    8.9731    0.0000 C   0  0  0  0  0  0  0  0  0  0  0  0
   -3.5024    7.4731    0.0000 C   0  0  0  0  0  0  0  0  0  0  0  0
   -9.3727    6.2774    0.0000 C   0  0  0  0  0  0  0  0  0  0  0  0
  -10.1227    7.5764    0.0000 C   0  0  0  0  0  0  0  0  0  0  0  0
  -11.6227    7.5764    0.0000 C   0  0  0  0  0  0  0  0  0  0  0  0
  -12.3727    6.2774    0.0000 C   0  0  0  0  0  0  0  0  0  0  0  0
  -11.6227    4.9783    0.0000 C   0  0  0  0  0  0  0  0  0  0  0  0
  -10.1227    4.9783    0.0000 C   0  0  0  0  0  0  0  0  0  0  0  0
   -8.9270   -0.8920    0.0000 C   0  0  0  0  0  0  0  0  0  0  0  0
  -10.2260   -1.6420    0.0000 C   0  0  0  0  0  0  0  0  0  0  0  0
  -10.2260   -3.1420    0.0000 C   0  0  0  0  0  0  0  0  0  0  0  0
   -8.9270   -3.8920    0.0000 C   0  0  0  0  0  0  0  0  0  0  0  0
   -7.6280   -3.1420    0.0000 C   0  0  0  0  0  0  0  0  0  0  0  0
   -7.6280   -1.6420    0.0000 C   0  0  0  0  0  0  0  0  0  0  0  0
  1  2  2  0
  2  3  1  0
  3  4  2  0
  4  5  1  0
  5  6  2  0
  5  7  1  0
  7  8  2  0
  8  9  1  0
  9 10  2  0
 10 11  1  0
 11 12  1  0
 12 13  1  0
 13 14  1  0
 14 15  2  0
 15 16  1  0
 16 17  2  0
 17 18  1  0
 18 19  2  0
 19 20  1  0
 20 21  1  0
 21 22  2  0
 21 23  1  0
 23 24  2  0
 24 25  1  0
 25 26  2  0
 26 27  1  0
 27 28  2  0
 17 29  1  0
 29 30  2  0
 30 31  1  0
 31 32  2  0
 32 33  1  0
 33 34  2  0
 13 35  2  0
 35 36  1  0
 36 37  2  0
 37 38  1  0
 38 39  2  0
 39 40  1  0
  6  1  1  0
 22  7  1  0
 28 23  1  0
 34 29  1  0
 40 35  1  0
  9  4  1  0
 40 11  2  0
 34 15  1  0
 28 19  1  0
M  END
>  <Synonyms>  (232) 
CIAFTALAN|Phthalocyanine

>  <Research Codes>  (232) 
nan

>  <Phase>  (232) 
1

>  <Applicants>  (232) 
nan

>  <USAN Stem>  (232) 
nan

>  <USAN Year>  (232) 
nan

>  <USAN Stem Definition>  (232) 
nan

>  <USAN Stem Substem>  (232) 
nan

>  <First Approval>  (232) 
nan

>  <ATC Codes>  (232) 
nan

>  <Level 4 ATC Codes>  (232) 
nan

>  <Level 3 ATC Codes>  (232) 
nan

>  <Level 2 ATC Codes>  (232) 
nan

>  <Level 1 ATC Codes>  (232) 
nan

>  <Indication Class>  (232) 
nan

>  <Patent>  (232) 
nan

>  <Drug Type>  (232) 
7:Natural Product-derived

>  <Passes Rule of Five>  (232) 
False

>  <First In Class>  (232) 
False

>  <Chirality>  (232) 
Unknown

>  <Prodrug>  (232) 
False

>  <Oral>  (232) 
False

>  <Parenteral>  (232) 
False

>  <Topical>  (232) 
False

>  <Black Box>  (232) 
False

>  <Availability Type>  (232) 
Unknown

>  <Withdrawn Year>  (232) 
nan

>  <Withdrawn Reason>  (232) 
nan

>  <Withdrawn Country>  (232) 
nan

>  <Withdrawn Class>  (232) 
nan

>  <SMILES>  (232) 
c1ccc2c(c1)-c1nc-2nc2[nH]c(nc3nc(nc4[nH]c(n1)c1ccccc41)-c1ccccc1-3)c1ccccc21

>  <InChi Key>  (232) 
IEQIEDJGQAUEQZ-UHFFFAOYSA-N

$$$$
CHEMBL214268
     RDKit          2D

 20 23  0  0  0  0  0  0  0  0999 V2000
   -1.2114    6.1554    0.0000 O   0  0  0  0  0  0  0  0  0  0  0  0
   -0.0967    5.1517    0.0000 C   0  0  0  0  0  0  0  0  0  0  0  0
    1.3299    5.6152    0.0000 N   0  0  0  0  0  0  0  0  0  0  0  0
    1.3243    8.2921    0.0000 C   0  0  0  0  0  0  0  0  0  0  0  0
    2.6142    8.7112    0.0000 C   0  0  0  0  0  0  0  0  0  0  0  0
    3.3802    9.0132    0.0000 N   0  0  0  0  0  0  0  0  0  0  0  0
    2.2655   10.0169    0.0000 C   0  0  0  0  0  0  0  0  0  0  0  0
    0.8389    9.5533    0.0000 C   0  0  0  0  0  0  0  0  0  0  0  0
    0.5271    8.0861    0.0000 C   0  0  0  0  0  0  0  0  0  0  0  0
    1.6418    7.0824    0.0000 C   0  0  0  0  0  0  0  0  0  0  0  0
    3.0684    7.5459    0.0000 C   0  0  0  0  0  0  0  0  0  0  0  0
   -0.4086    3.6844    0.0000 C   0  0  0  0  0  0  0  0  0  0  0  0
    0.7062    2.6807    0.0000 C   0  0  0  0  0  0  0  0  0  0  0  0
    0.3943    1.2135    0.0000 C   0  0  0  0  0  0  0  0  0  0  0  0
    1.2760    0.0000    0.0000 C   0  0  0  0  0  0  0  0  0  0  0  0
    0.3943   -1.2135    0.0000 C   0  0  0  0  0  0  0  0  0  0  0  0
   -1.0323   -0.7500    0.0000 O   0  0  0  0  0  0  0  0  0  0  0  0
   -1.0323    0.7500    0.0000 C   0  0  0  0  0  0  0  0  0  0  0  0
   -2.1470    1.7537    0.0000 C   0  0  0  0  0  0  0  0  0  0  0  0
   -1.8351    3.2209    0.0000 N   0  0  0  0  0  0  0  0  0  0  0  0
  1  2  2  0
  2  3  1  0
  4  3  1  6
  4  5  1  0
  5  6  1  0
  6  7  1  0
  7  8  1  0
  8  9  1  0
  9 10  1  0
 10 11  1  0
  2 12  1  0
 12 13  1  0
 13 14  2  0
 14 15  1  0
 15 16  2  0
 16 17  1  0
 17 18  1  0
 18 19  2  0
 19 20  1  0
  9  4  1  0
 20 12  2  0
 11  6  1  0
 18 14  1  0
M  END
>  <Synonyms>  (233) 
PHA-543613

>  <Research Codes>  (233) 
PHA-543613

>  <Phase>  (233) 
1

>  <Applicants>  (233) 
nan

>  <USAN Stem>  (233) 
nan

>  <USAN Year>  (233) 
nan

>  <USAN Stem Definition>  (233) 
nan

>  <USAN Stem Substem>  (233) 
nan

>  <First Approval>  (233) 
nan

>  <ATC Codes>  (233) 
nan

>  <Level 4 ATC Codes>  (233) 
nan

>  <Level 3 ATC Codes>  (233) 
nan

>  <Level 2 ATC Codes>  (233) 
nan

>  <Level 1 ATC Codes>  (233) 
nan

>  <Indication Class>  (233) 
nan

>  <Patent>  (233) 
nan

>  <Drug Type>  (233) 
1:Synthetic Small Molecule

>  <Passes Rule of Five>  (233) 
True

>  <First In Class>  (233) 
False

>  <Chirality>  (233) 
Single Stereoisomer

>  <Prodrug>  (233) 
False

>  <Oral>  (233) 
False

>  <Parenteral>  (233) 
False

>  <Topical>  (233) 
False

>  <Black Box>  (233) 
False

>  <Availability Type>  (233) 
Unknown

>  <Withdrawn Year>  (233) 
nan

>  <Withdrawn Reason>  (233) 
nan

>  <Withdrawn Country>  (233) 
nan

>  <Withdrawn Class>  (233) 
nan

>  <SMILES>  (233) 
O=C(N[C@H]1CN2CCC1CC2)c1cc2ccoc2cn1

>  <InChi Key>  (233) 
IPKZCLGGYKRDES-ZDUSSCGKSA-N

$$$$
CHEMBL322241
     RDKit          2D

 44 46  0  0  0  0  0  0  0  0999 V2000
    3.7500  -14.2894    0.0000 C   0  0  0  0  0  0  0  0  0  0  0  0
    3.0000  -12.9904    0.0000 C   0  0  0  0  0  0  0  0  0  0  0  0
    3.7500  -11.6913    0.0000 C   0  0  0  0  0  0  0  0  0  0  0  0
    1.5000  -12.9904    0.0000 C   0  0  0  0  0  0  0  0  0  0  0  0
    0.7500  -11.6913    0.0000 N   0  0  0  0  0  0  0  0  0  0  0  0
   -0.7500  -11.6913    0.0000 C   0  0  0  0  0  0  0  0  0  0  0  0
   -1.5000  -10.3923    0.0000 C   0  0  0  0  0  0  0  0  0  0  0  0
   -0.7500   -9.0933    0.0000 O   0  0  0  0  0  0  0  0  0  0  0  0
   -3.0000  -10.3923    0.0000 C   0  0  0  0  0  0  0  0  0  0  0  0
   -3.7500  -11.6913    0.0000 C   0  0  0  0  0  0  0  0  0  0  0  0
   -3.0000  -12.9904    0.0000 C   0  0  0  0  0  0  0  0  0  0  0  0
   -3.7500  -14.2894    0.0000 C   0  0  0  0  0  0  0  0  0  0  0  0
   -3.0000  -15.5885    0.0000 C   0  0  0  0  0  0  0  0  0  0  0  0
   -1.5000  -15.5885    0.0000 C   0  0  0  0  0  0  0  0  0  0  0  0
   -0.7500  -14.2894    0.0000 C   0  0  0  0  0  0  0  0  0  0  0  0
   -1.5000  -12.9904    0.0000 C   0  0  0  0  0  0  0  0  0  0  0  0
   -3.7500   -9.0933    0.0000 N   0  0  0  0  0  0  0  0  0  0  0  0
   -3.0000   -7.7942    0.0000 C   0  0  0  0  0  0  0  0  0  0  0  0
   -1.5000   -7.7942    0.0000 O   0  0  0  0  0  0  0  0  0  0  0  0
   -3.7500   -6.4952    0.0000 C   0  0  0  0  0  0  0  0  0  0  0  0
   -5.2500   -6.4952    0.0000 C   0  0  0  0  0  0  0  0  0  0  0  0
   -6.0000   -7.7942    0.0000 C   0  0  0  0  0  0  0  0  0  0  0  0
   -7.5000   -7.7942    0.0000 N   0  0  0  0  0  0  0  0  0  0  0  0
   -5.2500   -9.0933    0.0000 O   0  0  0  0  0  0  0  0  0  0  0  0
   -3.0000   -5.1962    0.0000 N   0  0  0  0  0  0  0  0  0  0  0  0
   -1.5000   -5.1962    0.0000 C   0  0  0  0  0  0  0  0  0  0  0  0
   -0.7500   -6.4952    0.0000 O   0  0  0  0  0  0  0  0  0  0  0  0
   -0.7500   -3.8971    0.0000 C   0  0  0  0  0  0  0  0  0  0  0  0
    0.7500   -3.8971    0.0000 C   0  0  0  0  0  0  0  0  0  0  0  0
    1.5000   -2.5981    0.0000 C   0  0  0  0  0  0  0  0  0  0  0  0
    0.7500   -1.2990    0.0000 C   0  0  0  0  0  0  0  0  0  0  0  0
    1.5000    0.0000    0.0000 C   0  0  0  0  0  0  0  0  0  0  0  0
    0.7500    1.2990    0.0000 C   0  0  0  0  0  0  0  0  0  0  0  0
   -0.7500    1.2990    0.0000 C   0  0  0  0  0  0  0  0  0  0  0  0
   -1.5000    0.0000    0.0000 C   0  0  0  0  0  0  0  0  0  0  0  0
   -0.7500   -1.2990    0.0000 C   0  0  0  0  0  0  0  0  0  0  0  0
   -1.5000   -2.5981    0.0000 N   0  0  0  0  0  0  0  0  0  0  0  0
    1.5000  -10.3923    0.0000 C   0  0  0  0  0  0  0  0  0  0  0  0
    0.7500   -9.0933    0.0000 O   0  0  0  0  0  0  0  0  0  0  0  0
    3.0000  -10.3923    0.0000 N   0  0  0  0  0  0  0  0  0  0  0  0
    3.7500   -9.0933    0.0000 C   0  0  0  0  0  0  0  0  0  0  0  0
    5.0490   -9.8433    0.0000 C   0  0  0  0  0  0  0  0  0  0  0  0
    2.4510   -8.3433    0.0000 C   0  0  0  0  0  0  0  0  0  0  0  0
    4.5000   -7.7942    0.0000 C   0  0  0  0  0  0  0  0  0  0  0  0
  1  2  1  0
  2  3  1  0
  2  4  1  0
  4  5  1  0
  5  6  1  0
  6  7  1  0
  7  8  2  0
  7  9  1  0
  9 10  1  0
 10 11  1  0
 11 12  2  0
 12 13  1  0
 13 14  2  0
 14 15  1  0
 15 16  2  0
  9 17  1  0
 17 18  1  0
 18 19  2  0
 18 20  1  0
 20 21  1  0
 21 22  1  0
 22 23  1  0
 22 24  1  0
 20 25  1  0
 25 26  1  0
 26 27  2  0
 26 28  1  0
 28 29  2  0
 29 30  1  0
 30 31  2  0
 31 32  1  0
 32 33  2  0
 33 34  1  0
 34 35  2  0
 35 36  1  0
 36 37  2  0
  5 38  1  0
 38 39  2  0
 38 40  1  0
 40 41  1  0
 41 42  1  0
 41 43  1  0
 41 44  1  0
 16 11  1  0
 37 28  1  0
 36 31  1  0
M  END
>  <Synonyms>  (234) 
NSC-670881|SC-52151|TELINAVIR

>  <Research Codes>  (234) 
NSC-670881|SC-52151

>  <Phase>  (234) 
1

>  <Applicants>  (234) 
nan

>  <USAN Stem>  (234) 
'-vir'

>  <USAN Year>  (234) 
1995.0

>  <USAN Stem Definition>  (234) 
antivirals: HIV protease inhibitors (saquinavir type)

>  <USAN Stem Substem>  (234) 
'-vir(-vir (-navir))'

>  <First Approval>  (234) 
nan

>  <ATC Codes>  (234) 
nan

>  <Level 4 ATC Codes>  (234) 
nan

>  <Level 3 ATC Codes>  (234) 
nan

>  <Level 2 ATC Codes>  (234) 
nan

>  <Level 1 ATC Codes>  (234) 
nan

>  <Indication Class>  (234) 
Antiviral

>  <Patent>  (234) 
nan

>  <Drug Type>  (234) 
1:Synthetic Small Molecule

>  <Passes Rule of Five>  (234) 
False

>  <First In Class>  (234) 
False

>  <Chirality>  (234) 
Single Stereoisomer

>  <Prodrug>  (234) 
False

>  <Oral>  (234) 
False

>  <Parenteral>  (234) 
False

>  <Topical>  (234) 
False

>  <Black Box>  (234) 
False

>  <Availability Type>  (234) 
Unknown

>  <Withdrawn Year>  (234) 
nan

>  <Withdrawn Reason>  (234) 
nan

>  <Withdrawn Country>  (234) 
nan

>  <Withdrawn Class>  (234) 
nan

>  <SMILES>  (234) 
CC(C)CN(C[C@@H](O)[C@H](Cc1ccccc1)NC(=O)[C@H](CC(N)=O)NC(=O)c1ccc2ccccc2n1)C(=O)NC(C)(C)C

>  <InChi Key>  (234) 
OLRONUCRDAXSQD-UHFFFAOYSA-N

$$$$
CHEMBL445472
     RDKit          2D

 22 25  0  0  0  0  0  0  0  0999 V2000
   -4.4918   -5.3529    0.0000 C   0  0  0  0  0  0  0  0  0  0  0  0
   -3.0000   -5.1962    0.0000 C   0  0  0  0  0  0  0  0  0  0  0  0
   -3.7500   -3.8971    0.0000 C   0  0  0  0  0  0  0  0  0  0  0  0
   -3.0000   -2.5981    0.0000 C   0  0  0  0  0  0  0  0  0  0  0  0
   -1.5000   -2.5981    0.0000 C   0  0  0  0  0  0  0  0  0  0  0  0
   -0.7500   -3.8971    0.0000 C   0  0  0  0  0  0  0  0  0  0  0  0
    0.7500   -3.8971    0.0000 C   0  0  0  0  0  0  0  0  0  0  0  0
    1.5000   -2.5981    0.0000 C   0  0  0  0  0  0  0  0  0  0  0  0
    0.7500   -1.2990    0.0000 C   0  0  0  0  0  0  0  0  0  0  0  0
    1.5000    0.0000    0.0000 C   0  0  0  0  0  0  0  0  0  0  0  0
    0.7500    1.2990    0.0000 C   0  0  0  0  0  0  0  0  0  0  0  0
    1.5000    2.5981    0.0000 O   0  0  0  0  0  0  0  0  0  0  0  0
   -0.7500    1.2990    0.0000 C   0  0  0  0  0  0  0  0  0  0  0  0
   -1.5000    0.0000    0.0000 C   0  0  0  0  0  0  0  0  0  0  0  0
   -0.7500   -1.2990    0.0000 C   0  0  0  0  0  0  0  0  0  0  0  0
   -2.2500   -1.2990    0.0000 C   0  0  0  0  0  0  0  0  0  0  0  0
   -1.5000   -5.1962    0.0000 C   0  0  0  0  0  0  0  0  0  0  0  0
   -1.0365   -6.6227    0.0000 C   0  0  0  0  0  0  0  0  0  0  0  0
   -2.2500   -7.5044    0.0000 C   0  0  0  0  0  0  0  0  0  0  0  0
   -2.2500   -9.0044    0.0000 Br  0  0  0  0  0  0  0  0  0  0  0  0
   -3.4635   -6.6227    0.0000 C   0  0  0  0  0  0  0  0  0  0  0  0
   -4.8901   -7.0863    0.0000 O   0  0  0  0  0  0  0  0  0  0  0  0
  2  1  1  6
  2  3  1  0
  3  4  1  0
  5  4  1  6
  5  6  1  0
  6  7  1  1
  7  8  1  0
  9  8  1  6
  9 10  1  0
 10 11  1  0
 11 12  1  6
 11 13  1  0
 13 14  1  0
 14 15  1  0
 15 16  1  6
  6 17  1  0
 17 18  1  6
 18 19  1  0
 19 20  1  0
 19 21  1  0
 21 22  2  0
 17  2  1  0
 21  2  1  0
 15  5  1  0
 15  9  1  0
M  END
>  <Synonyms>  (235) 
16.ALPHA.-BROMOEPIANDROSTERONE|HE-2000|HE2000

>  <Research Codes>  (235) 
HE-2000|HE2000

>  <Phase>  (235) 
1

>  <Applicants>  (235) 
nan

>  <USAN Stem>  (235) 
'-andr-; -ster-'

>  <USAN Year>  (235) 
nan

>  <USAN Stem Definition>  (235) 
androgens; steroids (androgens, anabolics)

>  <USAN Stem Substem>  (235) 
'-andr-(-andr-); -ster-(-ster-)'

>  <First Approval>  (235) 
nan

>  <ATC Codes>  (235) 
nan

>  <Level 4 ATC Codes>  (235) 
nan

>  <Level 3 ATC Codes>  (235) 
nan

>  <Level 2 ATC Codes>  (235) 
nan

>  <Level 1 ATC Codes>  (235) 
nan

>  <Indication Class>  (235) 
nan

>  <Patent>  (235) 
nan

>  <Drug Type>  (235) 
7:Natural Product-derived

>  <Passes Rule of Five>  (235) 
True

>  <First In Class>  (235) 
False

>  <Chirality>  (235) 
Single Stereoisomer

>  <Prodrug>  (235) 
False

>  <Oral>  (235) 
False

>  <Parenteral>  (235) 
False

>  <Topical>  (235) 
False

>  <Black Box>  (235) 
False

>  <Availability Type>  (235) 
Unknown

>  <Withdrawn Year>  (235) 
nan

>  <Withdrawn Reason>  (235) 
nan

>  <Withdrawn Country>  (235) 
nan

>  <Withdrawn Class>  (235) 
nan

>  <SMILES>  (235) 
C[C@]12CC[C@H]3[C@@H](CC[C@H]4C[C@@H](O)CC[C@@]43C)[C@@H]1C[C@@H](Br)C2=O

>  <InChi Key>  (235) 
CWVMWSZEMZOUPC-SUDCTSDNSA-N

$$$$
CHEMBL2062154
     RDKit          2D

 45 50  0  0  0  0  0  0  0  0999 V2000
    3.5490   -7.2452    0.0000 C   0  0  0  0  0  0  0  0  0  0  0  0
    2.2500   -6.4952    0.0000 C   0  0  0  0  0  0  0  0  0  0  0  0
    0.9510   -5.7452    0.0000 C   0  0  0  0  0  0  0  0  0  0  0  0
   -0.3481   -6.4952    0.0000 C   0  0  0  0  0  0  0  0  0  0  0  0
   -0.5049   -7.9870    0.0000 C   0  0  0  0  0  0  0  0  0  0  0  0
   -1.9721   -8.2988    0.0000 N   0  0  0  0  0  0  0  0  0  0  0  0
   -2.7221   -6.9998    0.0000 C   0  0  0  0  0  0  0  0  0  0  0  0
   -4.1893   -6.6879    0.0000 C   0  0  0  0  0  0  0  0  0  0  0  0
   -4.6528   -5.2614    0.0000 C   0  0  0  0  0  0  0  0  0  0  0  0
   -3.6491   -4.1466    0.0000 C   0  0  0  0  0  0  0  0  0  0  0  0
   -2.1819   -4.4585    0.0000 C   0  0  0  0  0  0  0  0  0  0  0  0
   -1.7184   -5.8851    0.0000 C   0  0  0  0  0  0  0  0  0  0  0  0
    3.0000   -5.1962    0.0000 N   0  0  0  0  0  0  0  0  0  0  0  0
    2.2500   -3.8971    0.0000 C   0  0  0  0  0  0  0  0  0  0  0  0
    0.7500   -3.8971    0.0000 O   0  0  0  0  0  0  0  0  0  0  0  0
    3.0000   -2.5981    0.0000 O   0  0  0  0  0  0  0  0  0  0  0  0
    2.2500   -1.2990    0.0000 C   0  0  0  0  0  0  0  0  0  0  0  0
    0.7500   -1.2990    0.0000 C   0  0  0  0  0  0  0  0  0  0  0  0
    1.5000    0.0000    0.0000 C   0  0  0  0  0  0  0  0  0  0  0  0
    0.7500    1.2990    0.0000 C   0  0  0  0  0  0  0  0  0  0  0  0
   -0.7500    1.2990    0.0000 C   0  0  0  0  0  0  0  0  0  0  0  0
   -1.5000    0.0000    0.0000 C   0  0  0  0  0  0  0  0  0  0  0  0
    1.7010   -0.7500    0.0000 C   0  0  0  0  0  0  0  0  0  0  0  0
    3.0000   -0.0000    0.0000 C   0  0  0  0  0  0  0  0  0  0  0  0
    2.2500    1.2990    0.0000 C   0  0  0  0  0  0  0  0  0  0  0  0
   -0.7500   -1.2990    0.0000 C   0  0  0  0  0  0  0  0  0  0  0  0
    1.5000   -7.7942    0.0000 C   0  0  0  0  0  0  0  0  0  0  0  0
    0.3211   -8.0882    0.0000 O   0  0  0  0  0  0  0  0  0  0  0  0
    2.2500   -9.0933    0.0000 N   0  0  0  0  0  0  0  0  0  0  0  0
    1.5000  -10.3923    0.0000 C   0  0  0  0  0  0  0  0  0  0  0  0
    2.2500  -11.6913    0.0000 C   0  0  0  0  0  0  0  0  0  0  0  0
    3.7500  -11.6913    0.0000 N   0  0  0  0  0  0  0  0  0  0  0  0
    4.5000  -12.9904    0.0000 C   0  0  0  0  0  0  0  0  0  0  0  0
    3.7500  -14.2894    0.0000 O   0  0  0  0  0  0  0  0  0  0  0  0
    6.0000  -12.9904    0.0000 C   0  0  0  0  0  0  0  0  0  0  0  0
    6.7500  -14.2894    0.0000 C   0  0  0  0  0  0  0  0  0  0  0  0
    8.2500  -14.2894    0.0000 C   0  0  0  0  0  0  0  0  0  0  0  0
    9.0000  -12.9904    0.0000 O   0  0  0  0  0  0  0  0  0  0  0  0
    9.0000  -15.5885    0.0000 O   0  0  0  0  0  0  0  0  0  0  0  0
    1.5000  -12.9904    0.0000 C   0  0  0  0  0  0  0  0  0  0  0  0
    2.2500  -14.2894    0.0000 C   0  0  0  0  0  0  0  0  0  0  0  0
    1.5000  -15.5885    0.0000 C   0  0  0  0  0  0  0  0  0  0  0  0
   -0.0000  -15.5885    0.0000 C   0  0  0  0  0  0  0  0  0  0  0  0
   -0.7500  -14.2894    0.0000 C   0  0  0  0  0  0  0  0  0  0  0  0
   -0.0000  -12.9904    0.0000 C   0  0  0  0  0  0  0  0  0  0  0  0
  2  1  1  6
  2  3  1  0
  3  4  1  0
  4  5  2  0
  5  6  1  0
  6  7  1  0
  7  8  2  0
  8  9  1  0
  9 10  2  0
 10 11  1  0
 11 12  2  0
  2 13  1  0
 13 14  1  0
 14 15  2  0
 14 16  1  0
 16 17  1  0
 17 18  1  0
 18 19  1  1
 20 19  1  1
 20 21  1  0
 22 21  1  1
 22 23  1  0
 24 23  1  6
 24 25  1  0
 22 26  1  0
  2 27  1  0
 27 28  2  0
 27 29  1  0
 29 30  1  0
 31 30  1  6
 31 32  1  0
 32 33  1  0
 33 34  2  0
 33 35  1  0
 35 36  1  0
 36 37  1  0
 37 38  2  0
 37 39  1  0
 31 40  1  0
 40 41  2  0
 41 42  1  0
 42 43  2  0
 43 44  1  0
 44 45  2  0
 12  4  1  0
 24 17  1  0
 45 40  1  0
 12  7  1  0
 26 18  1  0
 25 20  1  0
M  END
>  <Synonyms>  (236) 
CI-988|PD-134308

>  <Research Codes>  (236) 
PD-134308

>  <Phase>  (236) 
1

>  <Applicants>  (236) 
nan

>  <USAN Stem>  (236) 
nan

>  <USAN Year>  (236) 
nan

>  <USAN Stem Definition>  (236) 
nan

>  <USAN Stem Substem>  (236) 
nan

>  <First Approval>  (236) 
nan

>  <ATC Codes>  (236) 
nan

>  <Level 4 ATC Codes>  (236) 
nan

>  <Level 3 ATC Codes>  (236) 
nan

>  <Level 2 ATC Codes>  (236) 
nan

>  <Level 1 ATC Codes>  (236) 
nan

>  <Indication Class>  (236) 
nan

>  <Patent>  (236) 
nan

>  <Drug Type>  (236) 
1:Synthetic Small Molecule

>  <Passes Rule of Five>  (236) 
False

>  <First In Class>  (236) 
False

>  <Chirality>  (236) 
Racemic Mixture

>  <Prodrug>  (236) 
False

>  <Oral>  (236) 
False

>  <Parenteral>  (236) 
False

>  <Topical>  (236) 
False

>  <Black Box>  (236) 
False

>  <Availability Type>  (236) 
Unknown

>  <Withdrawn Year>  (236) 
nan

>  <Withdrawn Reason>  (236) 
nan

>  <Withdrawn Country>  (236) 
nan

>  <Withdrawn Class>  (236) 
nan

>  <SMILES>  (236) 
C[C@](Cc1c[nH]c2ccccc12)(NC(=O)OC1[C@H]2C[C@@H]3C[C@@H](C[C@H]1C3)C2)C(=O)NC[C@H](NC(=O)CCC(=O)O)c1ccccc1

>  <InChi Key>  (236) 
FVQSSYMRZKLFDR-QRCSZXLUSA-N

$$$$
CHEMBL134702
     RDKit          2D

  4  3  0  0  0  0  0  0  0  0999 V2000
    0.0000    0.0000    0.0000 C   0  0  0  0  0  0  0  0  0  0  0  0
    1.2990    0.7500    0.0000 C   0  0  0  0  0  0  0  0  0  0  0  0
    2.5981   -0.0000    0.0000 C   0  0  0  0  0  0  0  0  0  0  0  0
    3.8971    0.7500    0.0000 C   0  0  0  0  0  0  0  0  0  0  0  0
  1  2  1  0
  2  3  1  0
  3  4  1  0
M  END
>  <Synonyms>  (237) 
BUTANE|E-943|E943a|HC 600|INS NO.943|INS-943|R 600

>  <Research Codes>  (237) 
E-943|HC 600|INS NO.943|INS-943|R 600

>  <Phase>  (237) 
1

>  <Applicants>  (237) 
nan

>  <USAN Stem>  (237) 
nan

>  <USAN Year>  (237) 
nan

>  <USAN Stem Definition>  (237) 
nan

>  <USAN Stem Substem>  (237) 
nan

>  <First Approval>  (237) 
nan

>  <ATC Codes>  (237) 
nan

>  <Level 4 ATC Codes>  (237) 
nan

>  <Level 3 ATC Codes>  (237) 
nan

>  <Level 2 ATC Codes>  (237) 
nan

>  <Level 1 ATC Codes>  (237) 
nan

>  <Indication Class>  (237) 
Aerosol Propellant

>  <Patent>  (237) 
nan

>  <Drug Type>  (237) 
1:Synthetic Small Molecule

>  <Passes Rule of Five>  (237) 
True

>  <First In Class>  (237) 
False

>  <Chirality>  (237) 
Achiral Molecule

>  <Prodrug>  (237) 
False

>  <Oral>  (237) 
False

>  <Parenteral>  (237) 
False

>  <Topical>  (237) 
False

>  <Black Box>  (237) 
False

>  <Availability Type>  (237) 
Unknown

>  <Withdrawn Year>  (237) 
nan

>  <Withdrawn Reason>  (237) 
nan

>  <Withdrawn Country>  (237) 
nan

>  <Withdrawn Class>  (237) 
nan

>  <SMILES>  (237) 
CCCC

>  <InChi Key>  (237) 
IJDNQMDRQITEOD-UHFFFAOYSA-N

$$$$
CHEMBL3234681
     RDKit          2D

 25 28  0  0  0  0  0  0  0  0999 V2000
    1.9069    5.5921    0.0000 C   0  0  0  0  0  0  0  0  0  0  0  0
    0.4803    6.0556    0.0000 C   0  0  0  0  0  0  0  0  0  0  0  0
   -0.9463    6.5191    0.0000 C   0  0  0  0  0  0  0  0  0  0  0  0
    0.9438    7.4822    0.0000 C   0  0  0  0  0  0  0  0  0  0  0  0
    0.0168    4.6290    0.0000 N   0  0  0  0  0  0  0  0  0  0  0  0
   -1.4504    4.3172    0.0000 C   0  0  0  0  0  0  0  0  0  0  0  0
   -2.4541    5.4319    0.0000 O   0  0  0  0  0  0  0  0  0  0  0  0
   -1.9140    2.8906    0.0000 C   0  0  0  0  0  0  0  0  0  0  0  0
   -3.3405    2.4271    0.0000 N   0  0  0  0  0  0  0  0  0  0  0  0
   -3.3405    0.9271    0.0000 N   0  0  0  0  0  0  0  0  0  0  0  0
   -4.5541    0.0454    0.0000 C   0  0  0  0  0  0  0  0  0  0  0  0
   -5.9244    0.6555    0.0000 C   0  0  0  0  0  0  0  0  0  0  0  0
   -7.1379   -0.2262    0.0000 C   0  0  0  0  0  0  0  0  0  0  0  0
   -6.9811   -1.7180    0.0000 C   0  0  0  0  0  0  0  0  0  0  0  0
   -8.1947   -2.5997    0.0000 F   0  0  0  0  0  0  0  0  0  0  0  0
   -5.6108   -2.3281    0.0000 C   0  0  0  0  0  0  0  0  0  0  0  0
   -4.3973   -1.4464    0.0000 C   0  0  0  0  0  0  0  0  0  0  0  0
   -3.0270   -2.0565    0.0000 F   0  0  0  0  0  0  0  0  0  0  0  0
   -1.9140    0.4635    0.0000 C   0  0  0  0  0  0  0  0  0  0  0  0
   -1.0323    1.6771    0.0000 C   0  0  0  0  0  0  0  0  0  0  0  0
    0.3943    1.2135    0.0000 C   0  0  0  0  0  0  0  0  0  0  0  0
    1.2760    0.0000    0.0000 C   0  0  0  0  0  0  0  0  0  0  0  0
    0.3943   -1.2135    0.0000 C   0  0  0  0  0  0  0  0  0  0  0  0
   -1.0323   -0.7500    0.0000 C   0  0  0  0  0  0  0  0  0  0  0  0
   -1.0323    0.7500    0.0000 C   0  0  0  0  0  0  0  0  0  0  0  0
  1  2  1  0
  2  3  1  0
  2  4  1  0
  2  5  1  0
  5  6  1  0
  6  7  2  0
  6  8  1  0
  8  9  2  0
  9 10  1  0
 10 11  1  0
 11 12  2  0
 12 13  1  0
 13 14  2  0
 14 15  1  0
 14 16  1  0
 16 17  2  0
 17 18  1  0
 10 19  1  0
 19 20  2  0
 20 21  1  0
 21 22  1  1
 22 23  1  0
 24 23  1  1
 24 25  1  0
 20  8  1  0
 25 21  1  0
 17 11  1  0
 24 19  1  0
M  END
>  <Synonyms>  (238) 
GRC-10693|Tedalinab

>  <Research Codes>  (238) 
nan

>  <Phase>  (238) 
1

>  <Applicants>  (238) 
nan

>  <USAN Stem>  (238) 
'-nab'

>  <USAN Year>  (238) 
nan

>  <USAN Stem Definition>  (238) 
cannabinol derivatives

>  <USAN Stem Substem>  (238) 
'-nab(-nab)'

>  <First Approval>  (238) 
nan

>  <ATC Codes>  (238) 
nan

>  <Level 4 ATC Codes>  (238) 
nan

>  <Level 3 ATC Codes>  (238) 
nan

>  <Level 2 ATC Codes>  (238) 
nan

>  <Level 1 ATC Codes>  (238) 
nan

>  <Indication Class>  (238) 
nan

>  <Patent>  (238) 
nan

>  <Drug Type>  (238) 
1:Synthetic Small Molecule

>  <Passes Rule of Five>  (238) 
True

>  <First In Class>  (238) 
False

>  <Chirality>  (238) 
Single Stereoisomer

>  <Prodrug>  (238) 
False

>  <Oral>  (238) 
False

>  <Parenteral>  (238) 
False

>  <Topical>  (238) 
False

>  <Black Box>  (238) 
False

>  <Availability Type>  (238) 
Unknown

>  <Withdrawn Year>  (238) 
nan

>  <Withdrawn Reason>  (238) 
nan

>  <Withdrawn Country>  (238) 
nan

>  <Withdrawn Class>  (238) 
nan

>  <SMILES>  (238) 
CC(C)(C)NC(=O)c1nn(-c2ccc(F)cc2F)c2c1[C@H]1CC[C@@H]2C1

>  <InChi Key>  (238) 
NTPZXHMTJGOMCJ-WDEREUQCSA-N

$$$$
CHEMBL1233524
     RDKit          2D

 35 39  0  0  0  0  0  0  0  0999 V2000
    5.4464   -9.4694    0.0000 C   0  0  0  0  0  0  0  0  0  0  0  0
    4.8724   -8.0836    0.0000 N   0  0  0  0  0  0  0  0  0  0  0  0
    5.7855   -6.8935    0.0000 C   0  0  0  0  0  0  0  0  0  0  0  0
    3.3852   -7.8878    0.0000 C   0  0  0  0  0  0  0  0  0  0  0  0
    2.8112   -6.5020    0.0000 C   0  0  0  0  0  0  0  0  0  0  0  0
    1.3240   -6.3062    0.0000 N   0  0  0  0  0  0  0  0  0  0  0  0
    0.4109   -7.4962    0.0000 C   0  0  0  0  0  0  0  0  0  0  0  0
    0.7500   -4.9204    0.0000 C   0  0  0  0  0  0  0  0  0  0  0  0
    1.8107   -3.8597    0.0000 C   0  0  0  0  0  0  0  0  0  0  0  0
    1.8107   -2.3597    0.0000 O   0  0  0  0  0  0  0  0  0  0  0  0
    0.7500   -1.2990    0.0000 C   0  0  0  0  0  0  0  0  0  0  0  0
    1.5000    0.0000    0.0000 C   0  0  0  0  0  0  0  0  0  0  0  0
    0.7500    1.2990    0.0000 C   0  0  0  0  0  0  0  0  0  0  0  0
   -0.7500    1.2990    0.0000 C   0  0  0  0  0  0  0  0  0  0  0  0
   -1.5000    0.0000    0.0000 C   0  0  0  0  0  0  0  0  0  0  0  0
   -0.7500   -1.2990    0.0000 C   0  0  0  0  0  0  0  0  0  0  0  0
   -1.8107   -2.3597    0.0000 C   0  0  0  0  0  0  0  0  0  0  0  0
   -3.2372   -1.8962    0.0000 C   0  0  0  0  0  0  0  0  0  0  0  0
   -3.7008   -0.4696    0.0000 C   0  0  0  0  0  0  0  0  0  0  0  0
   -2.6971    0.6451    0.0000 C   0  0  0  0  0  0  0  0  0  0  0  0
   -3.1606    2.0717    0.0000 C   0  0  0  0  0  0  0  0  0  0  0  0
   -4.6278    2.3836    0.0000 C   0  0  0  0  0  0  0  0  0  0  0  0
   -5.6315    1.2689    0.0000 C   0  0  0  0  0  0  0  0  0  0  0  0
   -5.1680   -0.1577    0.0000 C   0  0  0  0  0  0  0  0  0  0  0  0
   -4.1189   -3.1097    0.0000 C   0  0  0  0  0  0  0  0  0  0  0  0
   -5.6107   -3.2665    0.0000 C   0  0  0  0  0  0  0  0  0  0  0  0
   -6.2208   -4.6368    0.0000 C   0  0  0  0  0  0  0  0  0  0  0  0
   -5.3391   -5.8503    0.0000 C   0  0  0  0  0  0  0  0  0  0  0  0
   -5.9492   -7.2207    0.0000 C   0  0  0  0  0  0  0  0  0  0  0  0
   -5.0676   -8.4342    0.0000 O   0  0  0  0  0  0  0  0  0  0  0  0
   -7.4410   -7.3774    0.0000 O   0  0  0  0  0  0  0  0  0  0  0  0
   -3.8473   -5.6935    0.0000 C   0  0  0  0  0  0  0  0  0  0  0  0
   -3.2372   -4.3232    0.0000 C   0  0  0  0  0  0  0  0  0  0  0  0
   -1.8107   -3.8597    0.0000 N   0  0  0  0  0  0  0  0  0  0  0  0
   -0.7500   -4.9204    0.0000 C   0  0  0  0  0  0  0  0  0  0  0  0
  1  2  1  0
  2  3  1  0
  2  4  1  0
  4  5  1  0
  5  6  1  0
  6  7  1  0
  8  6  1  6
  8  9  1  0
  9 10  1  0
 10 11  1  0
 11 12  2  0
 12 13  1  0
 13 14  2  0
 14 15  1  0
 15 16  2  0
 16 17  1  0
 17 18  2  0
 18 19  1  0
 19 20  1  0
 20 21  1  0
 21 22  1  0
 22 23  1  0
 23 24  1  0
 18 25  1  0
 25 26  2  0
 26 27  1  0
 27 28  2  0
 28 29  1  0
 29 30  2  0
 29 31  1  0
 28 32  1  0
 32 33  2  0
 33 34  1  0
 34 35  1  0
 35  8  1  0
 16 11  1  0
 34 17  1  0
 24 19  1  0
 33 25  1  0
M  END
>  <Synonyms>  (239) 
MK-3281

>  <Research Codes>  (239) 
MK-3281

>  <Phase>  (239) 
1

>  <Applicants>  (239) 
nan

>  <USAN Stem>  (239) 
nan

>  <USAN Year>  (239) 
nan

>  <USAN Stem Definition>  (239) 
nan

>  <USAN Stem Substem>  (239) 
nan

>  <First Approval>  (239) 
nan

>  <ATC Codes>  (239) 
nan

>  <Level 4 ATC Codes>  (239) 
nan

>  <Level 3 ATC Codes>  (239) 
nan

>  <Level 2 ATC Codes>  (239) 
nan

>  <Level 1 ATC Codes>  (239) 
nan

>  <Indication Class>  (239) 
nan

>  <Patent>  (239) 
nan

>  <Drug Type>  (239) 
1:Synthetic Small Molecule

>  <Passes Rule of Five>  (239) 
False

>  <First In Class>  (239) 
False

>  <Chirality>  (239) 
Single Stereoisomer

>  <Prodrug>  (239) 
False

>  <Oral>  (239) 
False

>  <Parenteral>  (239) 
False

>  <Topical>  (239) 
False

>  <Black Box>  (239) 
False

>  <Availability Type>  (239) 
Unknown

>  <Withdrawn Year>  (239) 
nan

>  <Withdrawn Reason>  (239) 
nan

>  <Withdrawn Country>  (239) 
nan

>  <Withdrawn Class>  (239) 
nan

>  <SMILES>  (239) 
CN(C)CCN(C)[C@H]1COc2ccccc2-c2c(C3CCCCC3)c3ccc(C(=O)O)cc3n2C1

>  <InChi Key>  (239) 
YQUCBFIQSJVCOR-JOCHJYFZSA-N

$$$$
CHEMBL1743323
     RDKit          2D

 30 35  0  0  0  0  0  0  0  0999 V2000
    3.0000   -2.5981    0.0000 C   0  0  0  0  0  0  0  0  0  0  0  0
    1.5000   -2.5981    0.0000 O   0  0  0  0  0  0  0  0  0  0  0  0
    0.7500   -1.2990    0.0000 C   0  0  0  0  0  0  0  0  0  0  0  0
    1.5000    0.0000    0.0000 C   0  0  0  0  0  0  0  0  0  0  0  0
    0.7500    1.2990    0.0000 C   0  0  0  0  0  0  0  0  0  0  0  0
   -0.7500    1.2990    0.0000 C   0  0  0  0  0  0  0  0  0  0  0  0
   -0.8000    0.0000    0.0000 C   0  0  0  0  0  0  0  0  0  0  0  0
   -0.4000   -0.6928    0.0000 C   0  0  0  0  0  0  0  0  0  0  0  0
   -1.5000   -2.5981    0.0000 C   0  0  0  0  0  0  0  0  0  0  0  0
   -2.2500   -3.8971    0.0000 C   0  0  0  0  0  0  0  0  0  0  0  0
   -2.4460   -2.3269    0.0000 O   0  0  0  0  0  0  0  0  0  0  0  0
   -0.2010   -3.3481    0.0000 C   0  0  0  0  0  0  0  0  0  0  0  0
   -0.9510   -4.6471    0.0000 C   0  0  0  0  0  0  0  0  0  0  0  0
    0.5490   -2.0490    0.0000 C   0  0  0  0  0  0  0  0  0  0  0  0
    1.0981   -4.0981    0.0000 C   0  0  0  0  0  0  0  0  0  0  0  0
   -1.5000    2.5981    0.0000 C   0  0  0  0  0  0  0  0  0  0  0  0
   -3.5973    1.9517    0.0000 C   0  0  0  0  0  0  0  0  0  0  0  0
   -4.1807    0.5698    0.0000 C   0  0  0  0  0  0  0  0  0  0  0  0
   -5.5511   -0.0403    0.0000 C   0  0  0  0  0  0  0  0  0  0  0  0
   -5.7079   -1.5321    0.0000 C   0  0  0  0  0  0  0  0  0  0  0  0
   -4.4943   -2.4138    0.0000 C   0  0  0  0  0  0  0  0  0  0  0  0
   -4.6511   -3.9055    0.0000 O   0  0  0  0  0  0  0  0  0  0  0  0
   -3.1240   -1.8037    0.0000 C   0  0  0  0  0  0  0  0  0  0  0  0
   -2.9672   -0.3119    0.0000 C   0  0  0  0  0  0  0  0  0  0  0  0
   -1.5000   -0.0000    0.0000 C   0  0  0  0  0  0  0  0  0  0  0  0
   -2.6500    0.6062    0.0000 C   0  0  0  0  0  0  0  0  0  0  0  0
   -3.0500    1.2990    0.0000 C   0  0  0  0  0  0  0  0  0  0  0  0
   -2.6500    1.9919    0.0000 N   0  0  0  0  0  0  0  0  0  0  0  0
   -0.7500   -1.2990    0.0000 C   0  0  0  0  0  0  0  0  0  0  0  0
   -1.7537   -2.4138    0.0000 O   0  0  0  0  0  0  0  0  0  0  0  0
  1  2  1  0
  3  2  1  1
  3  4  1  0
  4  5  1  0
  6  5  1  6
  6  7  1  0
  8  7  1  1
  8  9  1  0
  9 10  1  6
  9 11  1  0
  9 12  1  0
 12 13  1  0
 12 14  1  0
 12 15  1  0
  6 16  1  0
 16 17  1  6
 17 18  1  0
 18 19  2  0
 19 20  1  0
 20 21  2  0
 21 22  1  0
 21 23  1  0
 23 24  2  0
 24 25  1  0
 25 26  1  1
 26 27  1  0
 27 28  1  0
 25 29  1  0
 29 30  1  6
  8  3  1  0
 28 16  1  0
 29  3  1  0
 25  6  1  0
 24 18  1  0
 30 23  1  0
M  END
>  <Synonyms>  (240) 
NORBUPRENORPHINE

>  <Research Codes>  (240) 
nan

>  <Phase>  (240) 
1

>  <Applicants>  (240) 
nan

>  <USAN Stem>  (240) 
nan

>  <USAN Year>  (240) 
nan

>  <USAN Stem Definition>  (240) 
nan

>  <USAN Stem Substem>  (240) 
nan

>  <First Approval>  (240) 
nan

>  <ATC Codes>  (240) 
nan

>  <Level 4 ATC Codes>  (240) 
nan

>  <Level 3 ATC Codes>  (240) 
nan

>  <Level 2 ATC Codes>  (240) 
nan

>  <Level 1 ATC Codes>  (240) 
nan

>  <Indication Class>  (240) 
nan

>  <Patent>  (240) 
nan

>  <Drug Type>  (240) 
7:Natural Product-derived

>  <Passes Rule of Five>  (240) 
True

>  <First In Class>  (240) 
False

>  <Chirality>  (240) 
Single Stereoisomer

>  <Prodrug>  (240) 
False

>  <Oral>  (240) 
False

>  <Parenteral>  (240) 
False

>  <Topical>  (240) 
False

>  <Black Box>  (240) 
False

>  <Availability Type>  (240) 
Unknown

>  <Withdrawn Year>  (240) 
nan

>  <Withdrawn Reason>  (240) 
nan

>  <Withdrawn Country>  (240) 
nan

>  <Withdrawn Class>  (240) 
nan

>  <SMILES>  (240) 
CO[C@]12CC[C@@]3(C[C@@H]1[C@](C)(O)C(C)(C)C)[C@H]1Cc4ccc(O)c5c4[C@@]3(CCN1)[C@H]2O5

>  <InChi Key>  (240) 
YOYLLRBMGQRFTN-IOMBULRVSA-N

$$$$
CHEMBL3975308
     RDKit          2D

 30 33  0  0  0  0  0  0  0  0999 V2000
   -2.7990   -7.0442    0.0000 C   0  0  0  0  0  0  0  0  0  0  0  0
   -1.5000   -7.7942    0.0000 C   0  0  0  0  0  0  0  0  0  0  0  0
   -0.2010   -8.5442    0.0000 C   0  0  0  0  0  0  0  0  0  0  0  0
   -2.2500   -9.0933    0.0000 O   0  0  0  0  0  0  0  0  0  0  0  0
   -0.7500   -6.4952    0.0000 C   0  0  0  0  0  0  0  0  0  0  0  0
   -1.5000   -5.1962    0.0000 C   0  0  0  0  0  0  0  0  0  0  0  0
   -0.7500   -3.8971    0.0000 C   0  0  0  0  0  0  0  0  0  0  0  0
    0.7500   -3.8971    0.0000 C   0  0  0  0  0  0  0  0  0  0  0  0
    1.5000   -2.5981    0.0000 N   0  0  0  0  0  0  0  0  0  0  0  0
    0.7500   -1.2990    0.0000 C   0  0  0  0  0  0  0  0  0  0  0  0
    1.5000    0.0000    0.0000 C   0  0  0  0  0  0  0  0  0  0  0  0
    0.7500    1.2990    0.0000 C   0  0  0  0  0  0  0  0  0  0  0  0
   -0.7500    1.2990    0.0000 C   0  0  0  0  0  0  0  0  0  0  0  0
   -1.7537    2.4138    0.0000 N   0  0  0  0  0  0  0  0  0  0  0  0
   -3.1240    1.8037    0.0000 C   0  0  0  0  0  0  0  0  0  0  0  0
   -2.9672    0.3119    0.0000 C   0  0  0  0  0  0  0  0  0  0  0  0
   -4.0819   -0.6918    0.0000 C   0  0  0  0  0  0  0  0  0  0  0  0
   -5.5085   -0.2283    0.0000 C   0  0  0  0  0  0  0  0  0  0  0  0
   -6.6232   -1.2320    0.0000 C   0  0  0  0  0  0  0  0  0  0  0  0
   -6.3114   -2.6992    0.0000 C   0  0  0  0  0  0  0  0  0  0  0  0
   -4.8848   -3.1627    0.0000 C   0  0  0  0  0  0  0  0  0  0  0  0
   -4.5729   -4.6300    0.0000 C   0  0  0  0  0  0  0  0  0  0  0  0
   -4.2611   -6.0972    0.0000 F   0  0  0  0  0  0  0  0  0  0  0  0
   -6.0401   -4.9418    0.0000 F   0  0  0  0  0  0  0  0  0  0  0  0
   -3.1057   -4.3181    0.0000 F   0  0  0  0  0  0  0  0  0  0  0  0
   -3.7701   -2.1590    0.0000 C   0  0  0  0  0  0  0  0  0  0  0  0
   -1.5000    0.0000    0.0000 N   0  0  0  0  0  0  0  0  0  0  0  0
   -0.7500   -1.2990    0.0000 N   0  0  0  0  0  0  0  0  0  0  0  0
    1.5000   -5.1962    0.0000 C   0  0  0  0  0  0  0  0  0  0  0  0
    0.7500   -6.4952    0.0000 C   0  0  0  0  0  0  0  0  0  0  0  0
  1  2  1  0
  2  3  1  0
  2  4  1  0
  5  2  1  1
  5  6  1  0
  6  7  1  0
  7  8  1  0
  8  9  1  6
  9 10  2  3
 10 11  1  0
 11 12  2  0
 12 13  1  0
 13 14  2  0
 14 15  1  0
 15 16  2  0
 16 17  1  0
 17 18  2  0
 18 19  1  0
 19 20  2  0
 20 21  1  0
 21 22  1  0
 22 23  1  0
 22 24  1  0
 22 25  1  0
 21 26  2  0
 16 27  1  0
 27 28  1  0
  8 29  1  0
 29 30  1  0
 30  5  1  0
 28 10  1  0
 27 13  1  0
 26 17  1  0
M  END
>  <Synonyms>  (241) 
SGI-9481|TP-3654

>  <Research Codes>  (241) 
SGI-9481|TP-3654

>  <Phase>  (241) 
1

>  <Applicants>  (241) 
nan

>  <USAN Stem>  (241) 
nan

>  <USAN Year>  (241) 
nan

>  <USAN Stem Definition>  (241) 
nan

>  <USAN Stem Substem>  (241) 
nan

>  <First Approval>  (241) 
nan

>  <ATC Codes>  (241) 
nan

>  <Level 4 ATC Codes>  (241) 
nan

>  <Level 3 ATC Codes>  (241) 
nan

>  <Level 2 ATC Codes>  (241) 
nan

>  <Level 1 ATC Codes>  (241) 
nan

>  <Indication Class>  (241) 
nan

>  <Patent>  (241) 
nan

>  <Drug Type>  (241) 
1:Synthetic Small Molecule

>  <Passes Rule of Five>  (241) 
False

>  <First In Class>  (241) 
False

>  <Chirality>  (241) 
Single Stereoisomer

>  <Prodrug>  (241) 
False

>  <Oral>  (241) 
False

>  <Parenteral>  (241) 
False

>  <Topical>  (241) 
False

>  <Black Box>  (241) 
False

>  <Availability Type>  (241) 
Unknown

>  <Withdrawn Year>  (241) 
nan

>  <Withdrawn Reason>  (241) 
nan

>  <Withdrawn Country>  (241) 
nan

>  <Withdrawn Class>  (241) 
nan

>  <SMILES>  (241) 
CC(C)(O)[C@H]1CC[C@H](Nc2ccc3ncc(-c4cccc(C(F)(F)F)c4)n3n2)CC1

>  <InChi Key>  (241) 
XRNVABDYQLHODA-JCNLHEQBSA-N

$$$$
CHEMBL2387144
     RDKit          2D

 25 26  0  0  0  0  0  0  0  0999 V2000
    3.7500   -1.2990    0.0000 C   0  0  0  0  0  0  0  0  0  0  0  0
    3.0000    0.0000    0.0000 O   0  0  0  0  0  0  0  0  0  0  0  0
    1.5000    0.0000    0.0000 C   0  0  0  0  0  0  0  0  0  0  0  0
    0.7500   -1.2990    0.0000 C   0  0  0  0  0  0  0  0  0  0  0  0
   -0.7500   -1.2990    0.0000 C   0  0  0  0  0  0  0  0  0  0  0  0
   -1.5000    0.0000    0.0000 C   0  0  0  0  0  0  0  0  0  0  0  0
   -0.7500    1.2990    0.0000 C   0  0  0  0  0  0  0  0  0  0  0  0
   -1.5000    2.5981    0.0000 C   0  0  0  0  0  0  0  0  0  0  0  0
   -0.7500    3.8971    0.0000 N   0  0  0  0  0  0  0  0  0  0  0  0
   -1.5000    5.1962    0.0000 N   0  0  0  0  0  0  0  0  0  0  0  0
   -3.0000    5.1962    0.0000 C   0  0  0  0  0  0  0  0  0  0  0  0
   -3.7500    3.8971    0.0000 O   0  0  0  0  0  0  0  0  0  0  0  0
   -3.7500    6.4952    0.0000 C   0  0  0  0  0  0  0  0  0  0  0  0
   -4.5000    7.7942    0.0000 F   0  0  0  0  0  0  0  0  0  0  0  0
   -5.0490    5.7452    0.0000 F   0  0  0  0  0  0  0  0  0  0  0  0
   -2.4510    7.2452    0.0000 F   0  0  0  0  0  0  0  0  0  0  0  0
   -0.7500    6.4952    0.0000 C   0  0  0  0  0  0  0  0  0  0  0  0
   -1.5000    7.7942    0.0000 C   0  0  0  0  0  0  0  0  0  0  0  0
   -0.7500    9.0933    0.0000 C   0  0  0  0  0  0  0  0  0  0  0  0
    0.7500    9.0933    0.0000 C   0  0  0  0  0  0  0  0  0  0  0  0
    1.5000   10.3923    0.0000 C   0  0  0  0  0  0  0  0  0  0  0  0
    1.5000    7.7942    0.0000 C   0  0  0  0  0  0  0  0  0  0  0  0
    0.7500    6.4952    0.0000 C   0  0  0  0  0  0  0  0  0  0  0  0
    1.5000    5.1962    0.0000 C   0  0  0  0  0  0  0  0  0  0  0  0
    0.7500    1.2990    0.0000 C   0  0  0  0  0  0  0  0  0  0  0  0
  1  2  1  0
  2  3  1  0
  3  4  2  0
  4  5  1  0
  5  6  2  0
  6  7  1  0
  7  8  1  0
  8  9  2  0
  9 10  1  0
 10 11  1  0
 11 12  2  0
 11 13  1  0
 13 14  1  0
 13 15  1  0
 13 16  1  0
 10 17  1  0
 17 18  2  0
 18 19  1  0
 19 20  2  0
 20 21  1  0
 20 22  1  0
 22 23  2  0
 23 24  1  0
  7 25  2  0
 25  3  1  0
 23 17  1  0
M  END
>  <Synonyms>  (242) 
J-147|J147

>  <Research Codes>  (242) 
J-147|J147

>  <Phase>  (242) 
1

>  <Applicants>  (242) 
nan

>  <USAN Stem>  (242) 
nan

>  <USAN Year>  (242) 
nan

>  <USAN Stem Definition>  (242) 
nan

>  <USAN Stem Substem>  (242) 
nan

>  <First Approval>  (242) 
nan

>  <ATC Codes>  (242) 
nan

>  <Level 4 ATC Codes>  (242) 
nan

>  <Level 3 ATC Codes>  (242) 
nan

>  <Level 2 ATC Codes>  (242) 
nan

>  <Level 1 ATC Codes>  (242) 
nan

>  <Indication Class>  (242) 
nan

>  <Patent>  (242) 
nan

>  <Drug Type>  (242) 
1:Synthetic Small Molecule

>  <Passes Rule of Five>  (242) 
True

>  <First In Class>  (242) 
False

>  <Chirality>  (242) 
Achiral Molecule

>  <Prodrug>  (242) 
False

>  <Oral>  (242) 
False

>  <Parenteral>  (242) 
False

>  <Topical>  (242) 
False

>  <Black Box>  (242) 
False

>  <Availability Type>  (242) 
Unknown

>  <Withdrawn Year>  (242) 
nan

>  <Withdrawn Reason>  (242) 
nan

>  <Withdrawn Country>  (242) 
nan

>  <Withdrawn Class>  (242) 
nan

>  <SMILES>  (242) 
COc1cccc(/C=N/N(C(=O)C(F)(F)F)c2ccc(C)cc2C)c1

>  <InChi Key>  (242) 
HYMZAYGFKNNHDN-SSDVNMTOSA-N

$$$$
CHEMBL3338866
     RDKit          2D

 33 36  0  0  0  0  0  0  0  0999 V2000
    3.7500   -1.2990    0.0000 C   0  0  0  0  0  0  0  0  0  0  0  0
    3.0000    0.0000    0.0000 O   0  0  0  0  0  0  0  0  0  0  0  0
    1.5000    0.0000    0.0000 C   0  0  0  0  0  0  0  0  0  0  0  0
    0.7500   -1.2990    0.0000 C   0  0  0  0  0  0  0  0  0  0  0  0
   -0.7500   -1.2990    0.0000 C   0  0  0  0  0  0  0  0  0  0  0  0
   -1.5000    0.0000    0.0000 C   0  0  0  0  0  0  0  0  0  0  0  0
   -3.0000    0.0000    0.0000 C   0  0  0  0  0  0  0  0  0  0  0  0
   -3.7500    1.2990    0.0000 N   0  0  0  0  0  0  0  0  0  0  0  0
   -5.2500    1.2990    0.0000 C   0  0  0  0  0  0  0  0  0  0  0  0
   -6.0000   -0.0000    0.0000 O   0  0  0  0  0  0  0  0  0  0  0  0
   -6.0000    2.5981    0.0000 C   0  0  0  0  0  0  0  0  0  0  0  0
   -5.2500    3.8971    0.0000 C   0  0  0  0  0  0  0  0  0  0  0  0
   -6.0000    5.1962    0.0000 C   0  0  0  0  0  0  0  0  0  0  0  0
   -5.2500    6.4952    0.0000 C   0  0  0  0  0  0  0  0  0  0  0  0
   -3.7500    6.4952    0.0000 C   0  0  0  0  0  0  0  0  0  0  0  0
   -3.0000    7.7942    0.0000 N   0  0  0  0  0  0  0  0  0  0  0  0
   -3.7500    9.0933    0.0000 C   0  0  0  0  0  0  0  0  0  0  0  0
   -5.2500    9.0933    0.0000 C   0  0  0  0  0  0  0  0  0  0  0  0
   -6.0000   10.3923    0.0000 Cl  0  0  0  0  0  0  0  0  0  0  0  0
   -6.0000    7.7942    0.0000 C   0  0  0  0  0  0  0  0  0  0  0  0
   -7.5000    5.1962    0.0000 C   0  0  0  0  0  0  0  0  0  0  0  0
   -8.2500    3.8971    0.0000 N   0  0  0  0  0  0  0  0  0  0  0  0
   -7.5000    2.5981    0.0000 C   0  0  0  0  0  0  0  0  0  0  0  0
   -8.2500    1.2990    0.0000 C   0  0  0  0  0  0  0  0  0  0  0  0
   -9.7500    1.2990    0.0000 C   0  0  0  0  0  0  0  0  0  0  0  0
  -10.5000    0.0000    0.0000 C   0  0  0  0  0  0  0  0  0  0  0  0
   -9.7500   -1.2990    0.0000 C   0  0  0  0  0  0  0  0  0  0  0  0
   -8.2500   -1.2990    0.0000 C   0  0  0  0  0  0  0  0  0  0  0  0
   -7.5000    0.0000    0.0000 N   0  0  0  0  0  0  0  0  0  0  0  0
   -0.7500    1.2990    0.0000 N   0  0  0  0  0  0  0  0  0  0  0  0
    0.7500    1.2990    0.0000 C   0  0  0  0  0  0  0  0  0  0  0  0
    1.5000    2.5981    0.0000 O   0  0  0  0  0  0  0  0  0  0  0  0
    0.7500    3.8971    0.0000 C   0  0  0  0  0  0  0  0  0  0  0  0
  1  2  1  0
  2  3  1  0
  3  4  2  0
  4  5  1  0
  5  6  2  0
  6  7  1  0
  7  8  1  0
  8  9  1  0
  9 10  2  0
  9 11  1  0
 11 12  2  0
 12 13  1  0
 13 14  1  0
 14 15  2  0
 15 16  1  0
 16 17  2  0
 17 18  1  0
 18 19  1  0
 18 20  2  0
 13 21  2  0
 21 22  1  0
 22 23  2  0
 23 24  1  0
 24 25  2  0
 25 26  1  0
 26 27  2  0
 27 28  1  0
 28 29  2  0
  6 30  1  0
 30 31  2  0
 31 32  1  0
 32 33  1  0
 31  3  1  0
 23 11  1  0
 29 24  1  0
 20 14  1  0
M  END
>  <Synonyms>  (243) 
MK 1064|MK-1064

>  <Research Codes>  (243) 
MK 1064

>  <Phase>  (243) 
1

>  <Applicants>  (243) 
nan

>  <USAN Stem>  (243) 
nan

>  <USAN Year>  (243) 
nan

>  <USAN Stem Definition>  (243) 
nan

>  <USAN Stem Substem>  (243) 
nan

>  <First Approval>  (243) 
nan

>  <ATC Codes>  (243) 
nan

>  <Level 4 ATC Codes>  (243) 
nan

>  <Level 3 ATC Codes>  (243) 
nan

>  <Level 2 ATC Codes>  (243) 
nan

>  <Level 1 ATC Codes>  (243) 
nan

>  <Indication Class>  (243) 
nan

>  <Patent>  (243) 
nan

>  <Drug Type>  (243) 
1:Synthetic Small Molecule

>  <Passes Rule of Five>  (243) 
True

>  <First In Class>  (243) 
False

>  <Chirality>  (243) 
Achiral Molecule

>  <Prodrug>  (243) 
False

>  <Oral>  (243) 
False

>  <Parenteral>  (243) 
False

>  <Topical>  (243) 
False

>  <Black Box>  (243) 
False

>  <Availability Type>  (243) 
Unknown

>  <Withdrawn Year>  (243) 
nan

>  <Withdrawn Reason>  (243) 
nan

>  <Withdrawn Country>  (243) 
nan

>  <Withdrawn Class>  (243) 
nan

>  <SMILES>  (243) 
COc1ccc(CNC(=O)c2cc(-c3cncc(Cl)c3)cnc2-c2ccccn2)nc1OC

>  <InChi Key>  (243) 
CKTWQGHVNRYNCM-UHFFFAOYSA-N

$$$$
CHEMBL4302506
     RDKit          2D

 26 29  0  0  0  0  0  0  0  0999 V2000
   -7.5000  -10.3923    0.0000 C   0  0  0  0  0  0  0  0  0  0  0  0
   -8.2500   -9.0933    0.0000 O   0  0  0  0  0  0  0  0  0  0  0  0
   -7.5000   -7.7942    0.0000 C   0  0  0  0  0  0  0  0  0  0  0  0
   -8.2500   -6.4952    0.0000 C   0  0  0  0  0  0  0  0  0  0  0  0
   -9.7500   -6.4952    0.0000 C   0  0  0  0  0  0  0  0  0  0  0  0
  -10.5000   -5.1962    0.0000 C   0  0  0  0  0  0  0  0  0  0  0  0
   -9.7500   -3.8971    0.0000 C   0  0  0  0  0  0  0  0  0  0  0  0
   -8.2500   -3.8971    0.0000 N   0  0  0  0  0  0  0  0  0  0  0  0
   -7.5000   -5.1962    0.0000 C   0  0  0  0  0  0  0  0  0  0  0  0
   -6.0000   -5.1962    0.0000 N   0  0  0  0  0  0  0  0  0  0  0  0
   -5.2500   -6.4952    0.0000 C   0  0  0  0  0  0  0  0  0  0  0  0
   -3.7500   -6.4952    0.0000 C   0  0  0  0  0  0  0  0  0  0  0  0
   -3.0000   -5.1962    0.0000 N   0  0  0  0  0  0  0  0  0  0  0  0
   -1.5000   -5.1962    0.0000 C   0  0  0  0  0  0  0  0  0  0  0  0
   -0.7500   -3.8971    0.0000 C   0  0  0  0  0  0  0  0  0  0  0  0
    0.7500   -3.8971    0.0000 C   0  0  0  0  0  0  0  0  0  0  0  0
    1.5000   -2.5981    0.0000 O   0  0  0  0  0  0  0  0  0  0  0  0
    0.7500   -1.2990    0.0000 C   0  0  0  0  0  0  0  0  0  0  0  0
    1.5000    0.0000    0.0000 C   0  0  0  0  0  0  0  0  0  0  0  0
    0.7500    1.2990    0.0000 C   0  0  0  0  0  0  0  0  0  0  0  0
   -0.7500    1.2990    0.0000 C   0  0  0  0  0  0  0  0  0  0  0  0
   -1.5000    0.0000    0.0000 C   0  0  0  0  0  0  0  0  0  0  0  0
   -0.7500   -1.2990    0.0000 C   0  0  0  0  0  0  0  0  0  0  0  0
   -1.5000   -2.5981    0.0000 O   0  0  0  0  0  0  0  0  0  0  0  0
   -3.7500   -3.8971    0.0000 C   0  0  0  0  0  0  0  0  0  0  0  0
   -5.2500   -3.8971    0.0000 C   0  0  0  0  0  0  0  0  0  0  0  0
  1  2  1  0
  2  3  1  0
  3  4  1  0
  4  5  2  0
  5  6  1  0
  6  7  2  0
  7  8  1  0
  8  9  2  0
  9 10  1  0
 10 11  1  0
 11 12  1  0
 12 13  1  0
 13 14  1  0
 15 14  1  6
 15 16  1  0
 16 17  1  0
 17 18  1  0
 18 19  2  0
 19 20  1  0
 20 21  2  0
 21 22  1  0
 22 23  2  0
 23 24  1  0
 13 25  1  0
 25 26  1  0
  9  4  1  0
 26 10  1  0
 24 15  1  0
 23 18  1  0
M  END
>  <Synonyms>  (244) 
nan

>  <Research Codes>  (244) 
nan

>  <Phase>  (244) 
1

>  <Applicants>  (244) 
nan

>  <USAN Stem>  (244) 
nan

>  <USAN Year>  (244) 
nan

>  <USAN Stem Definition>  (244) 
nan

>  <USAN Stem Substem>  (244) 
nan

>  <First Approval>  (244) 
nan

>  <ATC Codes>  (244) 
nan

>  <Level 4 ATC Codes>  (244) 
nan

>  <Level 3 ATC Codes>  (244) 
nan

>  <Level 2 ATC Codes>  (244) 
nan

>  <Level 1 ATC Codes>  (244) 
nan

>  <Indication Class>  (244) 
nan

>  <Patent>  (244) 
nan

>  <Drug Type>  (244) 
1:Synthetic Small Molecule

>  <Passes Rule of Five>  (244) 
True

>  <First In Class>  (244) 
False

>  <Chirality>  (244) 
Single Stereoisomer

>  <Prodrug>  (244) 
False

>  <Oral>  (244) 
False

>  <Parenteral>  (244) 
False

>  <Topical>  (244) 
False

>  <Black Box>  (244) 
False

>  <Availability Type>  (244) 
Unknown

>  <Withdrawn Year>  (244) 
nan

>  <Withdrawn Reason>  (244) 
nan

>  <Withdrawn Country>  (244) 
nan

>  <Withdrawn Class>  (244) 
nan

>  <SMILES>  (244) 
COCc1cccnc1N1CCN(C[C@H]2COc3ccccc3O2)CC1

>  <InChi Key>  (244) 
VGIYMYGMVXPMKV-KRWDZBQOSA-N

$$$$
CHEMBL4279521
     RDKit          2D

 29 31  0  0  0  0  0  0  0  0999 V2000
   -2.6401   -3.1891    0.0000 C   0  0  0  0  0  0  0  0  0  0  0  0
   -1.2135   -2.7256    0.0000 C   0  0  0  0  0  0  0  0  0  0  0  0
   -0.0000   -3.6073    0.0000 N   0  0  0  0  0  0  0  0  0  0  0  0
    1.2135   -2.7256    0.0000 N   0  0  0  0  0  0  0  0  0  0  0  0
    2.6401   -3.1891    0.0000 C   0  0  0  0  0  0  0  0  0  0  0  0
    2.9520   -4.6564    0.0000 C   0  0  0  0  0  0  0  0  0  0  0  0
    4.3786   -5.1199    0.0000 N   0  0  0  0  0  0  0  0  0  0  0  0
    5.4933   -4.1162    0.0000 C   0  0  0  0  0  0  0  0  0  0  0  0
    6.9199   -4.5797    0.0000 O   0  0  0  0  0  0  0  0  0  0  0  0
    7.2317   -6.0469    0.0000 C   0  0  0  0  0  0  0  0  0  0  0  0
    8.6583   -6.5105    0.0000 C   0  0  0  0  0  0  0  0  0  0  0  0
    8.9702   -7.9777    0.0000 C   0  0  0  0  0  0  0  0  0  0  0  0
    9.7730   -5.5068    0.0000 C   0  0  0  0  0  0  0  0  0  0  0  0
    5.1814   -2.6490    0.0000 C   0  0  0  0  0  0  0  0  0  0  0  0
    6.2961   -1.6453    0.0000 Cl  0  0  0  0  0  0  0  0  0  0  0  0
    3.7548   -2.1855    0.0000 C   0  0  0  0  0  0  0  0  0  0  0  0
    0.7500   -1.2990    0.0000 C   0  0  0  0  0  0  0  0  0  0  0  0
    1.5000    0.0000    0.0000 C   0  0  0  0  0  0  0  0  0  0  0  0
    0.7500    1.2990    0.0000 C   0  0  0  0  0  0  0  0  0  0  0  0
   -0.7500    1.2990    0.0000 C   0  0  0  0  0  0  0  0  0  0  0  0
   -1.5000    2.5981    0.0000 C   0  0  0  0  0  0  0  0  0  0  0  0
   -3.0000    2.5981    0.0000 O   0  0  0  0  0  0  0  0  0  0  0  0
   -0.7500    3.8971    0.0000 N   0  0  0  0  0  0  0  0  0  0  0  0
   -1.5000    5.1962    0.0000 S   0  0  0  0  0  0  0  0  0  0  0  0
   -2.2500    6.4952    0.0000 C   0  0  0  0  0  0  0  0  0  0  0  0
   -2.7990    4.4462    0.0000 O   0  0  0  0  0  0  0  0  0  0  0  0
   -0.2010    5.9462    0.0000 O   0  0  0  0  0  0  0  0  0  0  0  0
   -1.5000    0.0000    0.0000 C   0  0  0  0  0  0  0  0  0  0  0  0
   -0.7500   -1.2990    0.0000 C   0  0  0  0  0  0  0  0  0  0  0  0
  1  2  1  0
  2  3  2  0
  3  4  1  0
  4  5  1  0
  5  6  2  0
  6  7  1  0
  7  8  2  0
  8  9  1  0
  9 10  1  0
 10 11  1  0
 11 12  1  0
 11 13  1  0
  8 14  1  0
 14 15  1  0
 14 16  2  0
  4 17  1  0
 17 18  2  0
 18 19  1  0
 19 20  2  0
 20 21  1  0
 21 22  2  0
 21 23  1  0
 23 24  1  0
 24 25  1  0
 24 26  2  0
 24 27  2  0
 20 28  1  0
 28 29  2  0
 29  2  1  0
 16  5  1  0
 29 17  1  0
M  END
>  <Synonyms>  (245) 
PF-05241328

>  <Research Codes>  (245) 
nan

>  <Phase>  (245) 
1

>  <Applicants>  (245) 
nan

>  <USAN Stem>  (245) 
nan

>  <USAN Year>  (245) 
nan

>  <USAN Stem Definition>  (245) 
nan

>  <USAN Stem Substem>  (245) 
nan

>  <First Approval>  (245) 
nan

>  <ATC Codes>  (245) 
nan

>  <Level 4 ATC Codes>  (245) 
nan

>  <Level 3 ATC Codes>  (245) 
nan

>  <Level 2 ATC Codes>  (245) 
nan

>  <Level 1 ATC Codes>  (245) 
nan

>  <Indication Class>  (245) 
nan

>  <Patent>  (245) 
nan

>  <Drug Type>  (245) 
1:Synthetic Small Molecule

>  <Passes Rule of Five>  (245) 
True

>  <First In Class>  (245) 
False

>  <Chirality>  (245) 
Achiral Molecule

>  <Prodrug>  (245) 
False

>  <Oral>  (245) 
False

>  <Parenteral>  (245) 
False

>  <Topical>  (245) 
False

>  <Black Box>  (245) 
False

>  <Availability Type>  (245) 
Unknown

>  <Withdrawn Year>  (245) 
nan

>  <Withdrawn Reason>  (245) 
nan

>  <Withdrawn Country>  (245) 
nan

>  <Withdrawn Class>  (245) 
nan

>  <SMILES>  (245) 
Cc1nn(-c2cnc(OCC(C)C)c(Cl)c2)c2ccc(C(=O)NS(C)(=O)=O)cc12

>  <InChi Key>  (245) 
RVTSXVZXEGFIPW-UHFFFAOYSA-N

$$$$
CHEMBL1910856
     RDKit          2D

 33 36  0  0  0  0  0  0  0  0999 V2000
    4.6471   -0.5490    0.0000 C   0  0  0  0  0  0  0  0  0  0  0  0
    5.3971   -1.8481    0.0000 C   0  0  0  0  0  0  0  0  0  0  0  0
    6.1471   -3.1471    0.0000 C   0  0  0  0  0  0  0  0  0  0  0  0
    4.0981   -2.5981    0.0000 C   0  0  0  0  0  0  0  0  0  0  0  0
    2.7990   -1.8481    0.0000 C   0  0  0  0  0  0  0  0  0  0  0  0
    1.5000   -2.5981    0.0000 C   0  0  0  0  0  0  0  0  0  0  0  0
    0.2010   -3.3481    0.0000 C   0  0  0  0  0  0  0  0  0  0  0  0
    0.2010   -4.8481    0.0000 N   0  0  0  0  0  0  0  0  0  0  0  0
   -1.0981   -2.5981    0.0000 O   0  0  0  0  0  0  0  0  0  0  0  0
    0.7500   -1.2990    0.0000 C   0  0  0  0  0  0  0  0  0  0  0  0
    1.5000    0.0000    0.0000 C   0  0  0  0  0  0  0  0  0  0  0  0
    0.7500    1.2990    0.0000 C   0  0  0  0  0  0  0  0  0  0  0  0
   -0.7500    1.2990    0.0000 C   0  0  0  0  0  0  0  0  0  0  0  0
   -1.5000    0.0000    0.0000 C   0  0  0  0  0  0  0  0  0  0  0  0
   -0.7500   -1.2990    0.0000 C   0  0  0  0  0  0  0  0  0  0  0  0
    2.2500   -3.8971    0.0000 C   0  0  0  0  0  0  0  0  0  0  0  0
    1.5000   -5.1962    0.0000 C   0  0  0  0  0  0  0  0  0  0  0  0
    2.2500   -6.4952    0.0000 C   0  0  0  0  0  0  0  0  0  0  0  0
    3.7500   -6.4952    0.0000 C   0  0  0  0  0  0  0  0  0  0  0  0
    4.5000   -5.1962    0.0000 C   0  0  0  0  0  0  0  0  0  0  0  0
    3.7500   -3.8971    0.0000 C   0  0  0  0  0  0  0  0  0  0  0  0
    6.6962   -1.0981    0.0000 N   0  0  0  0  0  0  0  0  0  0  0  0
    8.1450   -1.4863    0.0000 C   0  0  0  0  0  0  0  0  0  0  0  0
    8.5333   -0.0374    0.0000 C   0  0  0  0  0  0  0  0  0  0  0  0
    9.8323    0.7126    0.0000 O   0  0  0  0  0  0  0  0  0  0  0  0
   11.1313   -0.0374    0.0000 C   0  0  0  0  0  0  0  0  0  0  0  0
   11.1313   -1.5374    0.0000 C   0  0  0  0  0  0  0  0  0  0  0  0
   12.4304   -2.2874    0.0000 C   0  0  0  0  0  0  0  0  0  0  0  0
   13.7294   -1.5374    0.0000 C   0  0  0  0  0  0  0  0  0  0  0  0
   13.7294   -0.0374    0.0000 C   0  0  0  0  0  0  0  0  0  0  0  0
   15.0285    0.7126    0.0000 O   0  0  0  0  0  0  0  0  0  0  0  0
   12.4304    0.7126    0.0000 C   0  0  0  0  0  0  0  0  0  0  0  0
    7.0844    0.3508    0.0000 C   0  0  0  0  0  0  0  0  0  0  0  0
  1  2  1  0
  2  3  1  0
  2  4  1  0
  4  5  1  0
  5  6  1  0
  6  7  1  0
  7  8  1  0
  7  9  2  0
  6 10  1  0
 10 11  2  0
 11 12  1  0
 12 13  2  0
 13 14  1  0
 14 15  2  0
  6 16  1  0
 16 17  2  0
 17 18  1  0
 18 19  2  0
 19 20  1  0
 20 21  2  0
  2 22  1  0
 22 23  1  0
 23 24  1  0
 24 25  1  0
 25 26  1  0
 26 27  2  0
 27 28  1  0
 28 29  2  0
 29 30  1  0
 30 31  1  0
 30 32  2  0
 24 33  1  0
 15 10  1  0
 21 16  1  0
 33 22  1  0
 32 26  1  0
M  END
>  <Synonyms>  (246) 
PF-03635659|PF-3635659|PF03635659

>  <Research Codes>  (246) 
PF-3635659|PF03635659

>  <Phase>  (246) 
1

>  <Applicants>  (246) 
nan

>  <USAN Stem>  (246) 
nan

>  <USAN Year>  (246) 
nan

>  <USAN Stem Definition>  (246) 
nan

>  <USAN Stem Substem>  (246) 
nan

>  <First Approval>  (246) 
nan

>  <ATC Codes>  (246) 
nan

>  <Level 4 ATC Codes>  (246) 
nan

>  <Level 3 ATC Codes>  (246) 
nan

>  <Level 2 ATC Codes>  (246) 
nan

>  <Level 1 ATC Codes>  (246) 
nan

>  <Indication Class>  (246) 
nan

>  <Patent>  (246) 
nan

>  <Drug Type>  (246) 
1:Synthetic Small Molecule

>  <Passes Rule of Five>  (246) 
True

>  <First In Class>  (246) 
False

>  <Chirality>  (246) 
Achiral Molecule

>  <Prodrug>  (246) 
False

>  <Oral>  (246) 
False

>  <Parenteral>  (246) 
False

>  <Topical>  (246) 
False

>  <Black Box>  (246) 
False

>  <Availability Type>  (246) 
Unknown

>  <Withdrawn Year>  (246) 
nan

>  <Withdrawn Reason>  (246) 
nan

>  <Withdrawn Country>  (246) 
nan

>  <Withdrawn Class>  (246) 
nan

>  <SMILES>  (246) 
CC(C)(CCC(C(N)=O)(c1ccccc1)c1ccccc1)N1CC(Oc2cccc(O)c2)C1

>  <InChi Key>  (246) 
WGOJWDWKHJHXSV-UHFFFAOYSA-N

$$$$
CHEMBL1084617
     RDKit          2D

 32 35  0  0  0  0  0  0  0  0999 V2000
    3.7500   -1.2990    0.0000 C   0  0  0  0  0  0  0  0  0  0  0  0
    3.0000    0.0000    0.0000 O   0  0  0  0  0  0  0  0  0  0  0  0
    1.5000    0.0000    0.0000 C   0  0  0  0  0  0  0  0  0  0  0  0
    0.7500   -1.2990    0.0000 C   0  0  0  0  0  0  0  0  0  0  0  0
   -0.7500   -1.2990    0.0000 C   0  0  0  0  0  0  0  0  0  0  0  0
   -1.5000    0.0000    0.0000 C   0  0  0  0  0  0  0  0  0  0  0  0
   -0.7500    1.2990    0.0000 C   0  0  0  0  0  0  0  0  0  0  0  0
   -1.5000    2.5981    0.0000 C   0  0  0  0  0  0  0  0  0  0  0  0
   -3.0000    2.5981    0.0000 O   0  0  0  0  0  0  0  0  0  0  0  0
   -0.7500    3.8971    0.0000 N   0  0  0  0  0  0  0  0  0  0  0  0
   -1.5000    5.1962    0.0000 C   0  0  0  0  0  0  0  0  0  0  0  0
   -0.7500    6.4952    0.0000 C   0  0  0  0  0  0  0  0  0  0  0  0
   -1.5000    7.7942    0.0000 C   0  0  0  0  0  0  0  0  0  0  0  0
   -3.0000    7.7942    0.0000 C   0  0  0  0  0  0  0  0  0  0  0  0
   -3.7500    9.0933    0.0000 O   0  0  0  0  0  0  0  0  0  0  0  0
   -3.0000   10.3923    0.0000 C   0  0  0  0  0  0  0  0  0  0  0  0
   -3.7500   11.6913    0.0000 C   0  0  0  0  0  0  0  0  0  0  0  0
   -3.0000   12.9904    0.0000 N   0  0  0  0  0  0  0  0  0  0  0  0
   -1.5000   12.9904    0.0000 C   0  0  0  0  0  0  0  0  0  0  0  0
   -0.7500   14.2894    0.0000 C   0  0  0  0  0  0  0  0  0  0  0  0
   -1.5000   15.5885    0.0000 O   0  0  0  0  0  0  0  0  0  0  0  0
   -3.0000   15.5885    0.0000 C   0  0  0  0  0  0  0  0  0  0  0  0
   -3.7500   14.2894    0.0000 C   0  0  0  0  0  0  0  0  0  0  0  0
   -3.7500    6.4952    0.0000 C   0  0  0  0  0  0  0  0  0  0  0  0
   -5.2500    6.4952    0.0000 C   0  0  0  0  0  0  0  0  0  0  0  0
   -6.1317    5.2817    0.0000 C   0  0  0  0  0  0  0  0  0  0  0  0
   -7.5583    5.7452    0.0000 C   0  0  0  0  0  0  0  0  0  0  0  0
   -7.5583    7.2452    0.0000 N   0  0  0  0  0  0  0  0  0  0  0  0
   -6.1317    7.7087    0.0000 N   0  0  0  0  0  0  0  0  0  0  0  0
   -5.6682    9.1353    0.0000 C   0  0  0  0  0  0  0  0  0  0  0  0
   -3.0000    5.1962    0.0000 C   0  0  0  0  0  0  0  0  0  0  0  0
    0.7500    1.2990    0.0000 C   0  0  0  0  0  0  0  0  0  0  0  0
  1  2  1  0
  2  3  1  0
  3  4  2  0
  4  5  1  0
  5  6  2  0
  6  7  1  0
  7  8  1  0
  8  9  2  0
  8 10  1  0
 10 11  1  0
 11 12  2  0
 12 13  1  0
 13 14  2  0
 14 15  1  0
 15 16  1  0
 16 17  1  0
 17 18  1  0
 18 19  1  0
 19 20  1  0
 20 21  1  0
 21 22  1  0
 22 23  1  0
 14 24  1  0
 24 25  1  0
 25 26  2  0
 26 27  1  0
 27 28  2  0
 28 29  1  0
 29 30  1  0
 24 31  2  0
  7 32  2  0
 32  3  1  0
 31 11  1  0
 23 18  1  0
 29 25  1  0
M  END
>  <Synonyms>  (247) 
APD791|TEMANOGREL

>  <Research Codes>  (247) 
APD-791

>  <Phase>  (247) 
1

>  <Applicants>  (247) 
nan

>  <USAN Stem>  (247) 
'-grel'

>  <USAN Year>  (247) 
2010.0

>  <USAN Stem Definition>  (247) 
platelet aggregation inhibitors

>  <USAN Stem Substem>  (247) 
'-grel(-grel)'

>  <First Approval>  (247) 
nan

>  <ATC Codes>  (247) 
nan

>  <Level 4 ATC Codes>  (247) 
nan

>  <Level 3 ATC Codes>  (247) 
nan

>  <Level 2 ATC Codes>  (247) 
nan

>  <Level 1 ATC Codes>  (247) 
nan

>  <Indication Class>  (247) 
nan

>  <Patent>  (247) 
nan

>  <Drug Type>  (247) 
1:Synthetic Small Molecule

>  <Passes Rule of Five>  (247) 
True

>  <First In Class>  (247) 
False

>  <Chirality>  (247) 
Achiral Molecule

>  <Prodrug>  (247) 
False

>  <Oral>  (247) 
False

>  <Parenteral>  (247) 
False

>  <Topical>  (247) 
False

>  <Black Box>  (247) 
False

>  <Availability Type>  (247) 
Unknown

>  <Withdrawn Year>  (247) 
nan

>  <Withdrawn Reason>  (247) 
nan

>  <Withdrawn Country>  (247) 
nan

>  <Withdrawn Class>  (247) 
nan

>  <SMILES>  (247) 
COc1cccc(C(=O)Nc2ccc(OCCN3CCOCC3)c(-c3ccnn3C)c2)c1

>  <InChi Key>  (247) 
ZEOQUKRCASTCFR-UHFFFAOYSA-N

$$$$
CHEMBL432481
     RDKit          2D

 17 18  0  0  0  0  0  0  0  0999 V2000
    2.8863   -6.1856    0.0000 C   0  0  0  0  0  0  0  0  0  0  0  0
    2.0046   -4.9721    0.0000 C   0  0  0  0  0  0  0  0  0  0  0  0
    0.8899   -5.9758    0.0000 C   0  0  0  0  0  0  0  0  0  0  0  0
    1.2018   -7.4430    0.0000 O   0  0  0  0  0  0  0  0  0  0  0  0
   -0.5367   -5.5123    0.0000 O   0  0  0  0  0  0  0  0  0  0  0  0
    3.3037   -4.2221    0.0000 C   0  0  0  0  0  0  0  0  0  0  0  0
    2.9918   -2.7549    0.0000 S   0  0  0  0  0  0  0  0  0  0  0  0
    1.5000   -2.5981    0.0000 C   0  0  0  0  0  0  0  0  0  0  0  0
    0.7500   -1.2990    0.0000 C   0  0  0  0  0  0  0  0  0  0  0  0
    1.5000    0.0000    0.0000 C   0  0  0  0  0  0  0  0  0  0  0  0
    0.7500    1.2990    0.0000 C   0  0  0  0  0  0  0  0  0  0  0  0
   -0.7500    1.2990    0.0000 C   0  0  0  0  0  0  0  0  0  0  0  0
   -1.5000    2.5981    0.0000 O   0  0  0  0  0  0  0  0  0  0  0  0
   -1.5000    0.0000    0.0000 C   0  0  0  0  0  0  0  0  0  0  0  0
   -0.7500   -1.2990    0.0000 C   0  0  0  0  0  0  0  0  0  0  0  0
   -1.5000   -2.5981    0.0000 O   0  0  0  0  0  0  0  0  0  0  0  0
    0.8899   -3.9684    0.0000 N   0  0  0  0  0  0  0  0  0  0  0  0
  2  1  1  1
  2  3  1  0
  3  4  2  0
  3  5  1  0
  2  6  1  0
  6  7  1  0
  7  8  1  0
  8  9  1  0
  9 10  2  0
 10 11  1  0
 11 12  2  0
 12 13  1  0
 12 14  1  0
 14 15  2  0
 15 16  1  0
  8 17  2  0
 17  2  1  0
 15  9  1  0
M  END
>  <Synonyms>  (248) 
DEFERITRIN|GT-56-252|GT56-252

>  <Research Codes>  (248) 
GT-56-252|GT56-252

>  <Phase>  (248) 
1

>  <Applicants>  (248) 
nan

>  <USAN Stem>  (248) 
nan

>  <USAN Year>  (248) 
2005.0

>  <USAN Stem Definition>  (248) 
nan

>  <USAN Stem Substem>  (248) 
nan

>  <First Approval>  (248) 
nan

>  <ATC Codes>  (248) 
nan

>  <Level 4 ATC Codes>  (248) 
nan

>  <Level 3 ATC Codes>  (248) 
nan

>  <Level 2 ATC Codes>  (248) 
nan

>  <Level 1 ATC Codes>  (248) 
nan

>  <Indication Class>  (248) 
nan

>  <Patent>  (248) 
nan

>  <Drug Type>  (248) 
1:Synthetic Small Molecule

>  <Passes Rule of Five>  (248) 
True

>  <First In Class>  (248) 
False

>  <Chirality>  (248) 
Single Stereoisomer

>  <Prodrug>  (248) 
False

>  <Oral>  (248) 
False

>  <Parenteral>  (248) 
False

>  <Topical>  (248) 
False

>  <Black Box>  (248) 
False

>  <Availability Type>  (248) 
Unknown

>  <Withdrawn Year>  (248) 
nan

>  <Withdrawn Reason>  (248) 
nan

>  <Withdrawn Country>  (248) 
nan

>  <Withdrawn Class>  (248) 
nan

>  <SMILES>  (248) 
C[C@]1(C(=O)O)CSC(c2ccc(O)cc2O)=N1

>  <InChi Key>  (248) 
OEUUFNIKLCFNLN-LLVKDONJSA-N

$$$$
CHEMBL3989951
     RDKit          2D

 23 26  0  0  0  0  0  0  0  0999 V2000
   -3.4140   -0.6346    0.0000 O   0  0  0  0  0  0  0  0  0  0  0  0
   -4.1640    0.6645    0.0000 C   0  0  0  0  0  0  0  0  0  0  0  0
   -3.4140    1.9635    0.0000 C   0  0  0  0  0  0  0  0  0  0  0  0
   -1.9140    1.9635    0.0000 C   0  0  0  0  0  0  0  0  0  0  0  0
   -1.0323    3.1771    0.0000 C   0  0  0  0  0  0  0  0  0  0  0  0
   -1.3442    4.6443    0.0000 C   0  0  0  0  0  0  0  0  0  0  0  0
   -2.7707    5.1078    0.0000 F   0  0  0  0  0  0  0  0  0  0  0  0
   -0.2294    5.6480    0.0000 C   0  0  0  0  0  0  0  0  0  0  0  0
    1.1971    5.1844    0.0000 C   0  0  0  0  0  0  0  0  0  0  0  0
    1.5090    3.7172    0.0000 C   0  0  0  0  0  0  0  0  0  0  0  0
    0.3943    2.7135    0.0000 C   0  0  0  0  0  0  0  0  0  0  0  0
    0.3943    1.2135    0.0000 C   0  0  0  0  0  0  0  0  0  0  0  0
    1.2760    0.0000    0.0000 C   0  0  0  0  0  0  0  0  0  0  0  0
    0.3943   -1.2135    0.0000 N   0  0  0  0  0  0  0  0  0  0  0  0
   -1.0323   -0.7500    0.0000 C   0  0  0  0  0  0  0  0  0  0  0  0
   -1.0323    0.7500    0.0000 N   0  0  0  0  0  0  0  0  0  0  0  0
   -5.6640    0.6645    0.0000 C   0  0  0  0  0  0  0  0  0  0  0  0
   -6.4140    1.9635    0.0000 C   0  0  0  0  0  0  0  0  0  0  0  0
   -7.9140    1.9635    0.0000 C   0  0  0  0  0  0  0  0  0  0  0  0
   -8.6640    0.6645    0.0000 C   0  0  0  0  0  0  0  0  0  0  0  0
  -10.1640    0.6645    0.0000 O   0  0  0  0  0  0  0  0  0  0  0  0
   -7.9140   -0.6346    0.0000 C   0  0  0  0  0  0  0  0  0  0  0  0
   -6.4140   -0.6346    0.0000 C   0  0  0  0  0  0  0  0  0  0  0  0
  2  1  1  1
  2  3  1  0
  4  3  1  1
  4  5  1  0
  5  6  2  0
  6  7  1  0
  6  8  1  0
  8  9  2  0
  9 10  1  0
 10 11  2  0
 11 12  1  0
 12 13  2  0
 13 14  1  0
 14 15  2  0
 15 16  1  0
  2 17  1  0
 17 18  1  6
 18 19  1  0
 19 20  1  0
 20 21  1  1
 20 22  1  0
 22 23  1  0
 16  4  1  0
 23 17  1  0
 11  5  1  0
 16 12  1  0
M  END
>  <Synonyms>  (249) 
GDC-0919|IDO-IN-7|NAVOXIMOD|NLG-919|NLG919|RG-6078|RG6078|RO-7077339|RO7077339|RO7077339-001

>  <Research Codes>  (249) 
GDC-0919|IDO-IN-7|NLG-919|NLG919|RG-6078|RG6078|RO-7077339|RO7077339|RO7077339-001

>  <Phase>  (249) 
1

>  <Applicants>  (249) 
nan

>  <USAN Stem>  (249) 
'-imod'

>  <USAN Year>  (249) 
2017.0

>  <USAN Stem Definition>  (249) 
immunomodulators

>  <USAN Stem Substem>  (249) 
'-imod(-imod)'

>  <First Approval>  (249) 
nan

>  <ATC Codes>  (249) 
nan

>  <Level 4 ATC Codes>  (249) 
nan

>  <Level 3 ATC Codes>  (249) 
nan

>  <Level 2 ATC Codes>  (249) 
nan

>  <Level 1 ATC Codes>  (249) 
nan

>  <Indication Class>  (249) 
nan

>  <Patent>  (249) 
nan

>  <Drug Type>  (249) 
1:Synthetic Small Molecule

>  <Passes Rule of Five>  (249) 
True

>  <First In Class>  (249) 
False

>  <Chirality>  (249) 
Single Stereoisomer

>  <Prodrug>  (249) 
False

>  <Oral>  (249) 
False

>  <Parenteral>  (249) 
False

>  <Topical>  (249) 
False

>  <Black Box>  (249) 
False

>  <Availability Type>  (249) 
Unknown

>  <Withdrawn Year>  (249) 
nan

>  <Withdrawn Reason>  (249) 
nan

>  <Withdrawn Country>  (249) 
nan

>  <Withdrawn Class>  (249) 
nan

>  <SMILES>  (249) 
O[C@H](C[C@H]1c2c(F)cccc2-c2cncn21)[C@H]1CC[C@H](O)CC1

>  <InChi Key>  (249) 
YGACXVRLDHEXKY-WXRXAMBDSA-N

$$$$
CHEMBL561132
     RDKit          2D

 29 32  0  0  0  0  0  0  0  0999 V2000
   -5.3245   -4.5559    0.0000 C   0  0  0  0  0  0  0  0  0  0  0  0
   -4.1110   -5.4376    0.0000 N   0  0  0  0  0  0  0  0  0  0  0  0
   -2.7406   -4.8275    0.0000 C   0  0  0  0  0  0  0  0  0  0  0  0
   -1.5271   -5.7092    0.0000 C   0  0  0  0  0  0  0  0  0  0  0  0
   -0.1568   -5.0991    0.0000 C   0  0  0  0  0  0  0  0  0  0  0  0
    0.0000   -3.6073    0.0000 C   0  0  0  0  0  0  0  0  0  0  0  0
    1.2135   -2.7256    0.0000 C   0  0  0  0  0  0  0  0  0  0  0  0
    2.6401   -3.1891    0.0000 C   0  0  0  0  0  0  0  0  0  0  0  0
    2.9520   -4.6564    0.0000 C   0  0  0  0  0  0  0  0  0  0  0  0
    1.8373   -5.6601    0.0000 O   0  0  0  0  0  0  0  0  0  0  0  0
    4.3786   -5.1199    0.0000 O   0  0  0  0  0  0  0  0  0  0  0  0
    0.7500   -1.2990    0.0000 C   0  0  0  0  0  0  0  0  0  0  0  0
    1.5000    0.0000    0.0000 C   0  0  0  0  0  0  0  0  0  0  0  0
    0.7500    1.2990    0.0000 C   0  0  0  0  0  0  0  0  0  0  0  0
   -0.7500    1.2990    0.0000 C   0  0  0  0  0  0  0  0  0  0  0  0
   -1.5000    0.0000    0.0000 C   0  0  0  0  0  0  0  0  0  0  0  0
   -0.7500   -1.2990    0.0000 C   0  0  0  0  0  0  0  0  0  0  0  0
   -1.2135   -2.7256    0.0000 N   0  0  0  0  0  0  0  0  0  0  0  0
   -2.5838   -3.3357    0.0000 C   0  0  0  0  0  0  0  0  0  0  0  0
   -4.2677   -6.9294    0.0000 S   0  0  0  0  0  0  0  0  0  0  0  0
   -2.7760   -7.0862    0.0000 O   0  0  0  0  0  0  0  0  0  0  0  0
   -5.7595   -6.7726    0.0000 O   0  0  0  0  0  0  0  0  0  0  0  0
   -4.4245   -8.4212    0.0000 C   0  0  0  0  0  0  0  0  0  0  0  0
   -5.7949   -9.0313    0.0000 C   0  0  0  0  0  0  0  0  0  0  0  0
   -5.9517  -10.5231    0.0000 C   0  0  0  0  0  0  0  0  0  0  0  0
   -4.7381  -11.4047    0.0000 C   0  0  0  0  0  0  0  0  0  0  0  0
   -4.8949  -12.8965    0.0000 F   0  0  0  0  0  0  0  0  0  0  0  0
   -3.3678  -10.7946    0.0000 C   0  0  0  0  0  0  0  0  0  0  0  0
   -3.2110   -9.3029    0.0000 C   0  0  0  0  0  0  0  0  0  0  0  0
  1  2  1  0
  3  2  1  1
  3  4  1  0
  4  5  1  0
  5  6  1  0
  6  7  2  0
  7  8  1  0
  8  9  1  0
  9 10  2  0
  9 11  1  0
  7 12  1  0
 12 13  2  0
 13 14  1  0
 14 15  2  0
 15 16  1  0
 16 17  2  0
 17 18  1  0
 18 19  1  0
  2 20  1  0
 20 21  2  0
 20 22  2  0
 20 23  1  0
 23 24  2  0
 24 25  1  0
 25 26  2  0
 26 27  1  0
 26 28  1  0
 28 29  2  0
 19  3  1  0
 29 23  1  0
 18  6  1  0
 17 12  1  0
M  END
>  <Synonyms>  (250) 
MK-7246

>  <Research Codes>  (250) 
MK-7246

>  <Phase>  (250) 
1

>  <Applicants>  (250) 
nan

>  <USAN Stem>  (250) 
nan

>  <USAN Year>  (250) 
nan

>  <USAN Stem Definition>  (250) 
nan

>  <USAN Stem Substem>  (250) 
nan

>  <First Approval>  (250) 
nan

>  <ATC Codes>  (250) 
nan

>  <Level 4 ATC Codes>  (250) 
nan

>  <Level 3 ATC Codes>  (250) 
nan

>  <Level 2 ATC Codes>  (250) 
nan

>  <Level 1 ATC Codes>  (250) 
nan

>  <Indication Class>  (250) 
nan

>  <Patent>  (250) 
nan

>  <Drug Type>  (250) 
1:Synthetic Small Molecule

>  <Passes Rule of Five>  (250) 
True

>  <First In Class>  (250) 
False

>  <Chirality>  (250) 
Single Stereoisomer

>  <Prodrug>  (250) 
False

>  <Oral>  (250) 
False

>  <Parenteral>  (250) 
False

>  <Topical>  (250) 
False

>  <Black Box>  (250) 
False

>  <Availability Type>  (250) 
Unknown

>  <Withdrawn Year>  (250) 
nan

>  <Withdrawn Reason>  (250) 
nan

>  <Withdrawn Country>  (250) 
nan

>  <Withdrawn Class>  (250) 
nan

>  <SMILES>  (250) 
CN([C@@H]1CCc2c(CC(=O)O)c3ccccc3n2C1)S(=O)(=O)c1ccc(F)cc1

>  <InChi Key>  (250) 
JTCAGRAKUAAYDY-OAHLLOKOSA-N

$$$$
CHEMBL186113
     RDKit          2D

 35 39  0  0  0  0  0  0  0  0999 V2000
    8.0562    4.9363    0.0000 C   0  0  0  0  0  0  0  0  0  0  0  0
    7.3062    6.2353    0.0000 C   0  0  0  0  0  0  0  0  0  0  0  0
    5.8062    6.2353    0.0000 N   0  0  0  0  0  0  0  0  0  0  0  0
    4.9245    7.4488    0.0000 N   0  0  0  0  0  0  0  0  0  0  0  0
    3.4979    6.9853    0.0000 N   0  0  0  0  0  0  0  0  0  0  0  0
    3.4979    5.4853    0.0000 C   0  0  0  0  0  0  0  0  0  0  0  0
    2.2844    4.6036    0.0000 C   0  0  0  0  0  0  0  0  0  0  0  0
    2.2844    3.1036    0.0000 O   0  0  0  0  0  0  0  0  0  0  0  0
    0.8578    2.6401    0.0000 C   0  0  0  0  0  0  0  0  0  0  0  0
    0.3943    1.2135    0.0000 N   0  0  0  0  0  0  0  0  0  0  0  0
    1.2760    0.0000    0.0000 C   0  0  0  0  0  0  0  0  0  0  0  0
    0.3943   -1.2135    0.0000 N   0  0  0  0  0  0  0  0  0  0  0  0
   -1.0323   -0.7500    0.0000 C   0  0  0  0  0  0  0  0  0  0  0  0
   -2.3313   -1.5000    0.0000 C   0  0  0  0  0  0  0  0  0  0  0  0
   -2.3313   -3.0000    0.0000 N   0  0  0  0  0  0  0  0  0  0  0  0
   -3.6304   -0.7500    0.0000 N   0  0  0  0  0  0  0  0  0  0  0  0
   -3.6304    0.7500    0.0000 C   0  0  0  0  0  0  0  0  0  0  0  0
   -4.9294    1.5000    0.0000 N   0  0  0  0  0  0  0  0  0  0  0  0
   -4.9294    3.0000    0.0000 C   0  0  0  0  0  0  0  0  0  0  0  0
   -3.6304    3.7500    0.0000 C   0  0  0  0  0  0  0  0  0  0  0  0
   -3.6304    5.2500    0.0000 O   0  0  0  0  0  0  0  0  0  0  0  0
   -6.2284    3.7500    0.0000 C   0  0  0  0  0  0  0  0  0  0  0  0
   -6.2284    5.2500    0.0000 C   0  0  0  0  0  0  0  0  0  0  0  0
   -4.9294    6.0000    0.0000 C   0  0  0  0  0  0  0  0  0  0  0  0
   -4.9294    7.5000    0.0000 C   0  0  0  0  0  0  0  0  0  0  0  0
   -6.2284    8.2500    0.0000 C   0  0  0  0  0  0  0  0  0  0  0  0
   -7.5275    7.5000    0.0000 C   0  0  0  0  0  0  0  0  0  0  0  0
   -7.5275    6.0000    0.0000 C   0  0  0  0  0  0  0  0  0  0  0  0
   -2.3313    1.5000    0.0000 N   0  0  0  0  0  0  0  0  0  0  0  0
   -1.0323    0.7500    0.0000 C   0  0  0  0  0  0  0  0  0  0  0  0
   -0.0239    3.8536    0.0000 C   0  0  0  0  0  0  0  0  0  0  0  0
   -1.5239    3.8536    0.0000 O   0  0  0  0  0  0  0  0  0  0  0  0
    0.8578    5.0672    0.0000 C   0  0  0  0  0  0  0  0  0  0  0  0
    0.3943    6.4937    0.0000 O   0  0  0  0  0  0  0  0  0  0  0  0
    4.9245    5.0218    0.0000 N   0  0  0  0  0  0  0  0  0  0  0  0
  1  2  1  0
  2  3  1  0
  3  4  1  0
  4  5  2  0
  5  6  1  0
  6  7  1  0
  7  8  1  0
  8  9  1  0
  9 10  1  1
 10 11  1  0
 11 12  2  0
 12 13  1  0
 13 14  1  0
 14 15  2  0
 14 16  1  0
 16 17  1  0
 17 18  2  3
 18 19  1  0
 19 20  1  1
 20 21  1  0
 19 22  1  0
 22 23  1  0
 23 24  2  0
 24 25  1  0
 25 26  2  0
 26 27  1  0
 27 28  2  0
 17 29  1  0
 29 30  1  0
  9 31  1  0
 31 32  1  6
 31 33  1  0
 33 34  1  6
  6 35  2  0
 35  3  1  0
 33  7  1  0
 30 10  1  0
 30 13  2  0
 28 23  1  0
M  END
>  <Synonyms>  (251) 
GW-328267|GW328267|GW328267X|J2.047.755E

>  <Research Codes>  (251) 
GW328267|GW328267X|J2.047.755E

>  <Phase>  (251) 
1

>  <Applicants>  (251) 
nan

>  <USAN Stem>  (251) 
nan

>  <USAN Year>  (251) 
nan

>  <USAN Stem Definition>  (251) 
nan

>  <USAN Stem Substem>  (251) 
nan

>  <First Approval>  (251) 
nan

>  <ATC Codes>  (251) 
nan

>  <Level 4 ATC Codes>  (251) 
nan

>  <Level 3 ATC Codes>  (251) 
nan

>  <Level 2 ATC Codes>  (251) 
nan

>  <Level 1 ATC Codes>  (251) 
nan

>  <Indication Class>  (251) 
nan

>  <Patent>  (251) 
nan

>  <Drug Type>  (251) 
7:Natural Product-derived

>  <Passes Rule of Five>  (251) 
False

>  <First In Class>  (251) 
False

>  <Chirality>  (251) 
Single Stereoisomer

>  <Prodrug>  (251) 
False

>  <Oral>  (251) 
False

>  <Parenteral>  (251) 
False

>  <Topical>  (251) 
False

>  <Black Box>  (251) 
False

>  <Availability Type>  (251) 
Unknown

>  <Withdrawn Year>  (251) 
nan

>  <Withdrawn Reason>  (251) 
nan

>  <Withdrawn Country>  (251) 
nan

>  <Withdrawn Class>  (251) 
nan

>  <SMILES>  (251) 
CCn1nnc([C@H]2O[C@@H](n3cnc4c(N)nc(N[C@H](CO)Cc5ccccc5)nc43)[C@H](O)[C@@H]2O)n1

>  <InChi Key>  (251) 
FLBKPDIBGNWXMT-SFUCPVFQSA-N

$$$$
CHEMBL2057236
     RDKit          2D

 40 44  0  0  0  0  0  0  0  0999 V2000
   -3.7500   -3.8971    0.0000 C   0  0  0  0  0  0  0  0  0  0  0  0
   -3.0000   -2.5981    0.0000 N   0  0  0  0  0  0  0  0  0  0  0  0
   -3.7500   -1.2990    0.0000 C   0  0  0  0  0  0  0  0  0  0  0  0
   -1.5000   -2.5981    0.0000 C   0  0  0  0  0  0  0  0  0  0  0  0
   -0.7500   -3.8971    0.0000 C   0  0  0  0  0  0  0  0  0  0  0  0
   -1.5000   -5.1962    0.0000 O   0  0  0  0  0  0  0  0  0  0  0  0
    0.7500   -3.8971    0.0000 C   0  0  0  0  0  0  0  0  0  0  0  0
    1.5000   -5.1962    0.0000 C   0  0  0  0  0  0  0  0  0  0  0  0
    0.7500   -6.4952    0.0000 N   0  0  0  0  0  0  0  0  0  0  0  0
    3.0000   -5.1962    0.0000 O   0  0  0  0  0  0  0  0  0  0  0  0
    1.5000   -2.5981    0.0000 C   0  0  0  0  0  0  0  0  0  0  0  0
    3.0000   -2.5981    0.0000 O   0  0  0  0  0  0  0  0  0  0  0  0
    0.7500   -1.2990    0.0000 C   0  0  0  0  0  0  0  0  0  0  0  0
    2.2500   -1.2990    0.0000 O   0  0  0  0  0  0  0  0  0  0  0  0
    1.5000    0.0000    0.0000 C   0  0  0  0  0  0  0  0  0  0  0  0
    3.0000    0.0000    0.0000 O   0  0  0  0  0  0  0  0  0  0  0  0
    0.7500    1.2990    0.0000 C   0  0  0  0  0  0  0  0  0  0  0  0
    1.5000    2.5981    0.0000 C   0  0  0  0  0  0  0  0  0  0  0  0
    3.0000    2.5981    0.0000 O   0  0  0  0  0  0  0  0  0  0  0  0
    0.7500    3.8971    0.0000 C   0  0  0  0  0  0  0  0  0  0  0  0
    1.5000    5.1962    0.0000 C   0  0  0  0  0  0  0  0  0  0  0  0
    3.0000    5.1962    0.0000 O   0  0  0  0  0  0  0  0  0  0  0  0
    0.7500    6.4952    0.0000 C   0  0  0  0  0  0  0  0  0  0  0  0
    1.5000    7.7942    0.0000 N   0  0  0  0  0  0  0  0  0  0  0  0
    3.0000    7.7942    0.0000 C   0  0  0  0  0  0  0  0  0  0  0  0
    3.7500    6.4952    0.0000 O   0  0  0  0  0  0  0  0  0  0  0  0
    3.7500    9.0933    0.0000 C   0  0  0  0  0  0  0  0  0  0  0  0
    3.1399   10.4636    0.0000 C   0  0  0  0  0  0  0  0  0  0  0  0
    4.2546   11.4673    0.0000 C   0  0  0  0  0  0  0  0  0  0  0  0
    5.5537   10.7173    0.0000 C   0  0  0  0  0  0  0  0  0  0  0  0
    5.2418    9.2501    0.0000 N   0  0  0  0  0  0  0  0  0  0  0  0
    6.2455    8.1353    0.0000 C   0  0  0  0  0  0  0  0  0  0  0  0
   -0.7500    6.4952    0.0000 C   0  0  0  0  0  0  0  0  0  0  0  0
   -1.5000    5.1962    0.0000 C   0  0  0  0  0  0  0  0  0  0  0  0
   -3.0000    5.1962    0.0000 F   0  0  0  0  0  0  0  0  0  0  0  0
   -0.7500    3.8971    0.0000 C   0  0  0  0  0  0  0  0  0  0  0  0
   -1.5000    2.5981    0.0000 C   0  0  0  0  0  0  0  0  0  0  0  0
   -0.7500    1.2990    0.0000 C   0  0  0  0  0  0  0  0  0  0  0  0
   -1.5000    0.0000    0.0000 C   0  0  0  0  0  0  0  0  0  0  0  0
   -0.7500   -1.2990    0.0000 C   0  0  0  0  0  0  0  0  0  0  0  0
  1  2  1  0
  2  3  1  0
  4  2  1  1
  4  5  1  0
  5  6  2  0
  5  7  1  0
  7  8  1  0
  8  9  1  0
  8 10  2  0
  7 11  1  0
 11 12  2  0
 11 13  1  0
 13 14  1  1
 13 15  1  0
 15 16  1  0
 15 17  1  0
 17 18  2  0
 18 19  1  0
 18 20  1  0
 20 21  2  0
 21 22  1  0
 21 23  1  0
 23 24  1  0
 24 25  1  0
 25 26  2  0
 27 25  1  6
 27 28  1  0
 28 29  1  0
 29 30  1  0
 30 31  1  0
 31 32  1  0
 23 33  2  0
 33 34  1  0
 34 35  1  0
 34 36  2  0
 36 37  1  0
 37 38  2  0
 38 39  1  0
 40 39  1  6
 40  4  1  0
 40 13  1  0
 38 17  1  0
 36 20  1  0
 31 27  1  0
M  END
>  <Synonyms>  (252) 
TP-271

>  <Research Codes>  (252) 
nan

>  <Phase>  (252) 
1

>  <Applicants>  (252) 
nan

>  <USAN Stem>  (252) 
nan

>  <USAN Year>  (252) 
nan

>  <USAN Stem Definition>  (252) 
nan

>  <USAN Stem Substem>  (252) 
nan

>  <First Approval>  (252) 
nan

>  <ATC Codes>  (252) 
nan

>  <Level 4 ATC Codes>  (252) 
nan

>  <Level 3 ATC Codes>  (252) 
nan

>  <Level 2 ATC Codes>  (252) 
nan

>  <Level 1 ATC Codes>  (252) 
nan

>  <Indication Class>  (252) 
nan

>  <Patent>  (252) 
nan

>  <Drug Type>  (252) 
7:Natural Product-derived

>  <Passes Rule of Five>  (252) 
False

>  <First In Class>  (252) 
False

>  <Chirality>  (252) 
Single Stereoisomer

>  <Prodrug>  (252) 
False

>  <Oral>  (252) 
False

>  <Parenteral>  (252) 
False

>  <Topical>  (252) 
False

>  <Black Box>  (252) 
False

>  <Availability Type>  (252) 
Unknown

>  <Withdrawn Year>  (252) 
nan

>  <Withdrawn Reason>  (252) 
nan

>  <Withdrawn Country>  (252) 
nan

>  <Withdrawn Class>  (252) 
nan

>  <SMILES>  (252) 
CN(C)[C@@H]1C(O)=C(C(N)=O)C(=O)[C@@]2(O)C(O)=C3C(=O)c4c(O)c(NC(=O)[C@@H]5CCCN5C)cc(F)c4C[C@H]3C[C@@H]12

>  <InChi Key>  (252) 
LPNPFKCDGCOATM-HZHPDXDVSA-N

$$$$
CHEMBL270362
     RDKit          2D

 27 30  0  0  0  0  0  0  0  0999 V2000
    6.0000   -0.0000    0.0000 C   0  0  0  0  0  0  0  0  0  0  0  0
    5.2500   -1.2990    0.0000 C   0  0  0  0  0  0  0  0  0  0  0  0
    3.7500   -1.2990    0.0000 C   0  0  0  0  0  0  0  0  0  0  0  0
    3.0000   -2.5981    0.0000 C   0  0  0  0  0  0  0  0  0  0  0  0
    3.7500   -3.8971    0.0000 C   0  0  0  0  0  0  0  0  0  0  0  0
    3.0000   -5.1962    0.0000 C   0  0  0  0  0  0  0  0  0  0  0  0
    3.7500   -6.4952    0.0000 O   0  0  0  0  0  0  0  0  0  0  0  0
    1.5000   -5.1962    0.0000 O   0  0  0  0  0  0  0  0  0  0  0  0
    0.7500   -3.8971    0.0000 C   0  0  0  0  0  0  0  0  0  0  0  0
   -0.7500   -3.8971    0.0000 C   0  0  0  0  0  0  0  0  0  0  0  0
   -1.5000   -2.5981    0.0000 C   0  0  0  0  0  0  0  0  0  0  0  0
   -0.7500   -1.2990    0.0000 C   0  0  0  0  0  0  0  0  0  0  0  0
    0.7500   -1.2990    0.0000 C   0  0  0  0  0  0  0  0  0  0  0  0
    1.5000   -2.5981    0.0000 C   0  0  0  0  0  0  0  0  0  0  0  0
    1.5000    0.0000    0.0000 O   0  0  0  0  0  0  0  0  0  0  0  0
    0.7500    1.2990    0.0000 C   0  0  0  0  0  0  0  0  0  0  0  0
    0.4895    2.7762    0.0000 C   0  0  0  0  0  0  0  0  0  0  0  0
    2.1595    1.8121    0.0000 C   0  0  0  0  0  0  0  0  0  0  0  0
   -0.7500    1.2990    0.0000 C   0  0  0  0  0  0  0  0  0  0  0  0
   -1.5000    0.0000    0.0000 C   0  0  0  0  0  0  0  0  0  0  0  0
   -3.0000   -2.5981    0.0000 O   0  0  0  0  0  0  0  0  0  0  0  0
   -3.7500   -3.8971    0.0000 C   0  0  0  0  0  0  0  0  0  0  0  0
   -5.2500   -3.8971    0.0000 C   0  0  0  0  0  0  0  0  0  0  0  0
   -3.0000   -5.1962    0.0000 C   0  0  0  0  0  0  0  0  0  0  0  0
   -3.7500   -6.4952    0.0000 C   0  0  0  0  0  0  0  0  0  0  0  0
   -1.5000   -5.1962    0.0000 C   0  0  0  0  0  0  0  0  0  0  0  0
   -0.7500   -6.4952    0.0000 O   0  0  0  0  0  0  0  0  0  0  0  0
  1  2  1  0
  2  3  1  0
  3  4  1  0
  4  5  2  0
  5  6  1  0
  6  7  2  0
  6  8  1  0
  8  9  1  0
  9 10  2  0
 10 11  1  0
 11 12  2  0
 12 13  1  0
 13 14  2  0
 13 15  1  0
 15 16  1  0
 16 17  1  0
 16 18  1  0
 16 19  1  0
 19 20  2  0
 11 21  1  0
 21 22  1  0
 22 23  1  0
 22 24  1  0
 24 25  1  0
 24 26  1  0
 26 27  1  0
 14  4  1  0
 14  9  1  0
 26 10  1  0
 20 12  1  0
M  END
>  <Synonyms>  (253) 
CALANOLIDE A|NSC-650886

>  <Research Codes>  (253) 
NSC-650886

>  <Phase>  (253) 
1

>  <Applicants>  (253) 
nan

>  <USAN Stem>  (253) 
nan

>  <USAN Year>  (253) 
nan

>  <USAN Stem Definition>  (253) 
nan

>  <USAN Stem Substem>  (253) 
nan

>  <First Approval>  (253) 
nan

>  <ATC Codes>  (253) 
nan

>  <Level 4 ATC Codes>  (253) 
nan

>  <Level 3 ATC Codes>  (253) 
nan

>  <Level 2 ATC Codes>  (253) 
nan

>  <Level 1 ATC Codes>  (253) 
nan

>  <Indication Class>  (253) 
nan

>  <Patent>  (253) 
nan

>  <Drug Type>  (253) 
1:Synthetic Small Molecule

>  <Passes Rule of Five>  (253) 
True

>  <First In Class>  (253) 
False

>  <Chirality>  (253) 
Achiral Molecule

>  <Prodrug>  (253) 
False

>  <Oral>  (253) 
False

>  <Parenteral>  (253) 
False

>  <Topical>  (253) 
False

>  <Black Box>  (253) 
False

>  <Availability Type>  (253) 
Unknown

>  <Withdrawn Year>  (253) 
nan

>  <Withdrawn Reason>  (253) 
nan

>  <Withdrawn Country>  (253) 
nan

>  <Withdrawn Class>  (253) 
nan

>  <SMILES>  (253) 
CCCc1cc(=O)oc2c3c(c4c(c12)OC(C)(C)C=C4)OC(C)C(C)C3O

>  <InChi Key>  (253) 
NIDRYBLTWYFCFV-UHFFFAOYSA-N

$$$$
CHEMBL1783256
     RDKit          2D

 27 29  0  0  0  0  0  0  0  0999 V2000
   -9.7500    1.2990    0.0000 C   0  0  0  0  0  0  0  0  0  0  0  0
   -8.2500    1.2990    0.0000 C   0  0  0  0  0  0  0  0  0  0  0  0
   -7.5000    0.0000    0.0000 C   0  0  0  0  0  0  0  0  0  0  0  0
   -6.0000    0.0000    0.0000 N   0  0  0  0  0  0  0  0  0  0  0  0
   -5.2500   -1.2990    0.0000 C   0  0  0  0  0  0  0  0  0  0  0  0
   -6.0000   -2.5981    0.0000 O   0  0  0  0  0  0  0  0  0  0  0  0
   -3.7500   -1.2990    0.0000 C   0  0  0  0  0  0  0  0  0  0  0  0
   -3.0000   -2.5981    0.0000 N   0  0  0  0  0  0  0  0  0  0  0  0
   -1.5000   -2.5981    0.0000 N   0  0  0  0  0  0  0  0  0  0  0  0
   -0.7500   -1.2990    0.0000 C   0  0  0  0  0  0  0  0  0  0  0  0
    0.7500   -1.2990    0.0000 C   0  0  0  0  0  0  0  0  0  0  0  0
    1.5000   -2.5981    0.0000 C   0  0  0  0  0  0  0  0  0  0  0  0
    0.7500   -3.8971    0.0000 C   0  0  0  0  0  0  0  0  0  0  0  0
    1.5000   -5.1962    0.0000 C   0  0  0  0  0  0  0  0  0  0  0  0
    0.7500   -6.4952    0.0000 O   0  0  0  0  0  0  0  0  0  0  0  0
   -0.7500   -6.4952    0.0000 C   0  0  0  0  0  0  0  0  0  0  0  0
    3.0000   -5.1962    0.0000 C   0  0  0  0  0  0  0  0  0  0  0  0
    3.7500   -3.8971    0.0000 C   0  0  0  0  0  0  0  0  0  0  0  0
    3.0000   -2.5981    0.0000 C   0  0  0  0  0  0  0  0  0  0  0  0
    3.7500   -1.2990    0.0000 O   0  0  0  0  0  0  0  0  0  0  0  0
    5.2500   -1.2990    0.0000 C   0  0  0  0  0  0  0  0  0  0  0  0
    1.5000    0.0000    0.0000 C   0  0  0  0  0  0  0  0  0  0  0  0
    0.7500    1.2990    0.0000 C   0  0  0  0  0  0  0  0  0  0  0  0
   -0.7500    1.2990    0.0000 C   0  0  0  0  0  0  0  0  0  0  0  0
   -1.5000    0.0000    0.0000 C   0  0  0  0  0  0  0  0  0  0  0  0
   -3.0000    0.0000    0.0000 C   0  0  0  0  0  0  0  0  0  0  0  0
   -3.7500    1.2990    0.0000 N   0  0  0  0  0  0  0  0  0  0  0  0
  1  2  1  0
  2  3  1  0
  3  4  1  0
  4  5  1  0
  5  6  2  0
  5  7  1  0
  7  8  2  0
  8  9  1  0
  9 10  1  0
 10 11  2  0
 11 12  1  0
 12 13  2  0
 13 14  1  0
 14 15  1  0
 15 16  1  0
 14 17  2  0
 17 18  1  0
 18 19  2  0
 19 20  1  0
 20 21  1  0
 11 22  1  0
 22 23  2  0
 23 24  1  0
 24 25  2  0
 25 26  1  0
 26 27  2  0
 26  7  1  0
 25 10  1  0
 19 12  1  0
M  END
>  <Synonyms>  (254) 
AZD6280

>  <Research Codes>  (254) 
AZD-6280

>  <Phase>  (254) 
1

>  <Applicants>  (254) 
nan

>  <USAN Stem>  (254) 
nan

>  <USAN Year>  (254) 
nan

>  <USAN Stem Definition>  (254) 
nan

>  <USAN Stem Substem>  (254) 
nan

>  <First Approval>  (254) 
nan

>  <ATC Codes>  (254) 
nan

>  <Level 4 ATC Codes>  (254) 
nan

>  <Level 3 ATC Codes>  (254) 
nan

>  <Level 2 ATC Codes>  (254) 
nan

>  <Level 1 ATC Codes>  (254) 
nan

>  <Indication Class>  (254) 
nan

>  <Patent>  (254) 
nan

>  <Drug Type>  (254) 
1:Synthetic Small Molecule

>  <Passes Rule of Five>  (254) 
True

>  <First In Class>  (254) 
False

>  <Chirality>  (254) 
Achiral Molecule

>  <Prodrug>  (254) 
False

>  <Oral>  (254) 
False

>  <Parenteral>  (254) 
False

>  <Topical>  (254) 
False

>  <Black Box>  (254) 
False

>  <Availability Type>  (254) 
Unknown

>  <Withdrawn Year>  (254) 
nan

>  <Withdrawn Reason>  (254) 
nan

>  <Withdrawn Country>  (254) 
nan

>  <Withdrawn Class>  (254) 
nan

>  <SMILES>  (254) 
CCCNC(=O)c1nnc2c(-c3cc(OC)ccc3OC)cccc2c1N

>  <InChi Key>  (254) 
NVWCZRPXYVDQEE-UHFFFAOYSA-N

$$$$
CHEMBL1230813
     RDKit          2D

 66 72  0  0  0  0  0  0  0  0999 V2000
    8.5454   -6.4468    0.0000 O   0  0  0  0  0  0  0  0  0  0  0  0
    7.1751   -5.8367    0.0000 C   0  0  0  0  0  0  0  0  0  0  0  0
    7.0183   -4.3450    0.0000 C   0  0  0  0  0  0  0  0  0  0  0  0
    5.5183   -4.3450    0.0000 O   0  0  0  0  0  0  0  0  0  0  0  0
    4.0511   -4.0331    0.0000 C   0  0  0  0  0  0  0  0  0  0  0  0
    2.6807   -3.4230    0.0000 O   0  0  0  0  0  0  0  0  0  0  0  0
    0.7500   -1.2990    0.0000 C   0  0  0  0  0  0  0  0  0  0  0  0
    1.5000    0.0000    0.0000 C   0  0  0  0  0  0  0  0  0  0  0  0
    3.0000    0.0000    0.0000 C   0  0  0  0  0  0  0  0  0  0  0  0
    3.7500    1.2990    0.0000 O   0  0  0  0  0  0  0  0  0  0  0  0
    0.7500    1.2990    0.0000 O   0  0  0  0  0  0  0  0  0  0  0  0
   -0.7500    1.2990    0.0000 C   0  0  0  0  0  0  0  0  0  0  0  0
   -0.9068    2.7908    0.0000 O   0  0  0  0  0  0  0  0  0  0  0  0
   -0.7500    4.2826    0.0000 C   0  0  0  0  0  0  0  0  0  0  0  0
    0.2537    5.3973    0.0000 C   0  0  0  0  0  0  0  0  0  0  0  0
    1.4672    4.5156    0.0000 C   0  0  0  0  0  0  0  0  0  0  0  0
    2.8375    5.1257    0.0000 O   0  0  0  0  0  0  0  0  0  0  0  0
    1.0037    6.6964    0.0000 O   0  0  0  0  0  0  0  0  0  0  0  0
    1.4672    8.1229    0.0000 C   0  0  0  0  0  0  0  0  0  0  0  0
    2.6807    9.0046    0.0000 O   0  0  0  0  0  0  0  0  0  0  0  0
    4.0511    9.6147    0.0000 C   0  0  0  0  0  0  0  0  0  0  0  0
    5.5183    9.9266    0.0000 C   0  0  0  0  0  0  0  0  0  0  0  0
    5.3615   11.4184    0.0000 C   0  0  0  0  0  0  0  0  0  0  0  0
    3.9912   12.0285    0.0000 O   0  0  0  0  0  0  0  0  0  0  0  0
    7.0183    9.9266    0.0000 O   0  0  0  0  0  0  0  0  0  0  0  0
    8.4855    9.6147    0.0000 C   0  0  0  0  0  0  0  0  0  0  0  0
    9.8558    9.0046    0.0000 O   0  0  0  0  0  0  0  0  0  0  0  0
   11.0694    8.1229    0.0000 C   0  0  0  0  0  0  0  0  0  0  0  0
   12.0730    7.0082    0.0000 C   0  0  0  0  0  0  0  0  0  0  0  0
   13.2866    7.8899    0.0000 C   0  0  0  0  0  0  0  0  0  0  0  0
   13.1298    9.3817    0.0000 O   0  0  0  0  0  0  0  0  0  0  0  0
   12.8230    5.7092    0.0000 O   0  0  0  0  0  0  0  0  0  0  0  0
   13.2866    4.2826    0.0000 C   0  0  0  0  0  0  0  0  0  0  0  0
   13.4434    2.7908    0.0000 O   0  0  0  0  0  0  0  0  0  0  0  0
   13.2866    1.2990    0.0000 C   0  0  0  0  0  0  0  0  0  0  0  0
   12.8230   -0.1275    0.0000 C   0  0  0  0  0  0  0  0  0  0  0  0
   14.1934   -0.7377    0.0000 C   0  0  0  0  0  0  0  0  0  0  0  0
   15.4069    0.1440    0.0000 O   0  0  0  0  0  0  0  0  0  0  0  0
   12.0730   -1.4266    0.0000 O   0  0  0  0  0  0  0  0  0  0  0  0
   11.0694   -2.5413    0.0000 C   0  0  0  0  0  0  0  0  0  0  0  0
    9.8558   -3.4230    0.0000 O   0  0  0  0  0  0  0  0  0  0  0  0
    8.4855   -4.0331    0.0000 C   0  0  0  0  0  0  0  0  0  0  0  0
    6.5873   -4.0331    0.0000 C   0  0  0  0  0  0  0  0  0  0  0  0
    7.1751   -2.2294    0.0000 O   0  0  0  0  0  0  0  0  0  0  0  0
    5.9492   -4.0331    0.0000 C   0  0  0  0  0  0  0  0  0  0  0  0
    5.3615   -2.2294    0.0000 O   0  0  0  0  0  0  0  0  0  0  0  0
   11.5329   -1.1147    0.0000 C   0  0  0  0  0  0  0  0  0  0  0  0
   10.1626   -0.5046    0.0000 O   0  0  0  0  0  0  0  0  0  0  0  0
   12.2829    0.1843    0.0000 C   0  0  0  0  0  0  0  0  0  0  0  0
   11.0694    1.0660    0.0000 O   0  0  0  0  0  0  0  0  0  0  0  0
   12.2829    5.3973    0.0000 C   0  0  0  0  0  0  0  0  0  0  0  0
   11.0694    4.5156    0.0000 O   0  0  0  0  0  0  0  0  0  0  0  0
   11.5329    6.6964    0.0000 C   0  0  0  0  0  0  0  0  0  0  0  0
   10.1626    6.0863    0.0000 O   0  0  0  0  0  0  0  0  0  0  0  0
    7.0183    9.3029    0.0000 C   0  0  0  0  0  0  0  0  0  0  0  0
    7.1751    7.8111    0.0000 O   0  0  0  0  0  0  0  0  0  0  0  0
    5.5183    9.3029    0.0000 C   0  0  0  0  0  0  0  0  0  0  0  0
    5.3615    7.8111    0.0000 O   0  0  0  0  0  0  0  0  0  0  0  0
    0.4635    7.0082    0.0000 C   0  0  0  0  0  0  0  0  0  0  0  0
   -0.7500    7.8899    0.0000 O   0  0  0  0  0  0  0  0  0  0  0  0
   -0.2865    5.7092    0.0000 C   0  0  0  0  0  0  0  0  0  0  0  0
   -1.6568    6.3193    0.0000 O   0  0  0  0  0  0  0  0  0  0  0  0
   -1.5000    0.0000    0.0000 C   0  0  0  0  0  0  0  0  0  0  0  0
   -3.0000    0.0000    0.0000 O   0  0  0  0  0  0  0  0  0  0  0  0
   -0.7500   -1.2990    0.0000 C   0  0  0  0  0  0  0  0  0  0  0  0
   -1.5000   -2.5981    0.0000 O   0  0  0  0  0  0  0  0  0  0  0  0
  1  2  1  0
  3  2  1  1
  3  4  1  0
  5  4  1  6
  5  6  1  0
  6  7  1  0
  7  8  1  0
  8  9  1  6
  9 10  1  0
  8 11  1  0
 12 11  1  1
 12 13  1  0
 13 14  1  0
 14 15  1  0
 15 16  1  6
 16 17  1  0
 15 18  1  0
 19 18  1  6
 19 20  1  0
 20 21  1  0
 21 22  1  0
 22 23  1  1
 23 24  1  0
 22 25  1  0
 25 26  1  0
 26 27  1  0
 27 28  1  0
 28 29  1  0
 29 30  1  1
 30 31  1  0
 29 32  1  0
 33 32  1  6
 33 34  1  0
 34 35  1  0
 35 36  1  0
 36 37  1  1
 37 38  1  0
 36 39  1  0
 40 39  1  6
 40 41  1  0
 41 42  1  0
 42 43  1  0
 43 44  1  6
 43 45  1  0
 45 46  1  1
 40 47  1  0
 47 48  1  6
 47 49  1  0
 49 50  1  1
 33 51  1  0
 51 52  1  6
 51 53  1  0
 53 54  1  1
 26 55  1  1
 55 56  1  6
 55 57  1  0
 57 58  1  1
 19 59  1  0
 59 60  1  1
 59 61  1  0
 61 62  1  6
 12 63  1  0
 63 64  1  1
 63 65  1  0
 65 66  1  6
 42  3  1  6
 45  5  1  0
  7 65  1  1
 14 61  1  1
 21 57  1  1
 28 53  1  1
 35 49  1  1
M  END
>  <Synonyms>  (255) 
.ALPHA.-CYCLODEXTRIN|ALFADEX|ALPHA CYCLODEXTRIN|NSC-269470

>  <Research Codes>  (255) 
NSC-269470

>  <Phase>  (255) 
1

>  <Applicants>  (255) 
nan

>  <USAN Stem>  (255) 
nan

>  <USAN Year>  (255) 
nan

>  <USAN Stem Definition>  (255) 
nan

>  <USAN Stem Substem>  (255) 
nan

>  <First Approval>  (255) 
nan

>  <ATC Codes>  (255) 
nan

>  <Level 4 ATC Codes>  (255) 
nan

>  <Level 3 ATC Codes>  (255) 
nan

>  <Level 2 ATC Codes>  (255) 
nan

>  <Level 1 ATC Codes>  (255) 
nan

>  <Indication Class>  (255) 
nan

>  <Patent>  (255) 
nan

>  <Drug Type>  (255) 
7:Natural Product-derived

>  <Passes Rule of Five>  (255) 
False

>  <First In Class>  (255) 
False

>  <Chirality>  (255) 
Single Stereoisomer

>  <Prodrug>  (255) 
False

>  <Oral>  (255) 
False

>  <Parenteral>  (255) 
False

>  <Topical>  (255) 
False

>  <Black Box>  (255) 
False

>  <Availability Type>  (255) 
Unknown

>  <Withdrawn Year>  (255) 
nan

>  <Withdrawn Reason>  (255) 
nan

>  <Withdrawn Country>  (255) 
nan

>  <Withdrawn Class>  (255) 
nan

>  <SMILES>  (255) 
OC[C@H]1O[C@@H]2O[C@@H]3[C@@H](CO)O[C@H](O[C@@H]4[C@@H](CO)O[C@H](O[C@@H]5[C@@H](CO)O[C@H](O[C@@H]6[C@@H](CO)O[C@H](O[C@@H]7[C@@H](CO)O[C@H](O[C@H]1[C@H](O)[C@H]2O)[C@H](O)[C@H]7O)[C@H](O)[C@H]6O)[C@H](O)[C@H]5O)[C@H](O)[C@H]4O)[C@H](O)[C@H]3O

>  <InChi Key>  (255) 
HFHDHCJBZVLPGP-RWMJIURBSA-N

$$$$
CHEMBL146506
     RDKit          2D

 32 35  0  0  0  0  0  0  0  0999 V2000
    0.7500   -3.8971    0.0000 C   0  0  0  0  0  0  0  0  0  0  0  0
    1.5000   -2.5981    0.0000 C   0  0  0  0  0  0  0  0  0  0  0  0
    3.0000   -2.5981    0.0000 C   0  0  0  0  0  0  0  0  0  0  0  0
    3.7500   -3.8971    0.0000 C   0  0  0  0  0  0  0  0  0  0  0  0
    3.0000   -5.1962    0.0000 C   0  0  0  0  0  0  0  0  0  0  0  0
    3.7500   -6.4952    0.0000 C   0  0  0  0  0  0  0  0  0  0  0  0
    5.2500   -6.4952    0.0000 C   0  0  0  0  0  0  0  0  0  0  0  0
    6.0000   -7.7942    0.0000 O   0  0  0  0  0  0  0  0  0  0  0  0
    5.2500   -9.0933    0.0000 C   0  0  0  0  0  0  0  0  0  0  0  0
    6.0000  -10.3923    0.0000 C   0  0  0  0  0  0  0  0  0  0  0  0
    5.2500  -11.6913    0.0000 N   0  0  0  0  0  0  0  0  0  0  0  0
    3.7500  -11.6913    0.0000 C   0  0  0  0  0  0  0  0  0  0  0  0
    3.0000  -12.9904    0.0000 C   0  0  0  0  0  0  0  0  0  0  0  0
    3.7500  -14.2894    0.0000 O   0  0  0  0  0  0  0  0  0  0  0  0
    5.2500  -14.2894    0.0000 C   0  0  0  0  0  0  0  0  0  0  0  0
    6.0000  -12.9904    0.0000 C   0  0  0  0  0  0  0  0  0  0  0  0
    6.0000   -5.1962    0.0000 C   0  0  0  0  0  0  0  0  0  0  0  0
    5.2500   -3.8971    0.0000 C   0  0  0  0  0  0  0  0  0  0  0  0
    0.7500   -1.2990    0.0000 C   0  0  0  0  0  0  0  0  0  0  0  0
    1.5000    0.0000    0.0000 C   0  0  0  0  0  0  0  0  0  0  0  0
    0.7500    1.2990    0.0000 C   0  0  0  0  0  0  0  0  0  0  0  0
   -0.7500    1.2990    0.0000 C   0  0  0  0  0  0  0  0  0  0  0  0
   -1.5000    0.0000    0.0000 C   0  0  0  0  0  0  0  0  0  0  0  0
   -0.7500   -1.2990    0.0000 C   0  0  0  0  0  0  0  0  0  0  0  0
   -3.0000    0.0000    0.0000 C   0  0  0  0  0  0  0  0  0  0  0  0
   -4.4095   -0.5130    0.0000 C   0  0  0  0  0  0  0  0  0  0  0  0
   -2.7395   -1.4772    0.0000 C   0  0  0  0  0  0  0  0  0  0  0  0
   -3.7500    1.2990    0.0000 C   0  0  0  0  0  0  0  0  0  0  0  0
   -3.0000    2.5981    0.0000 C   0  0  0  0  0  0  0  0  0  0  0  0
   -1.5000    2.5981    0.0000 C   0  0  0  0  0  0  0  0  0  0  0  0
   -0.0905    3.1111    0.0000 C   0  0  0  0  0  0  0  0  0  0  0  0
   -1.7605    4.0753    0.0000 C   0  0  0  0  0  0  0  0  0  0  0  0
  1  2  1  0
  2  3  2  0
  3  4  1  0
  4  5  2  0
  5  6  1  0
  6  7  2  0
  7  8  1  0
  8  9  1  0
  9 10  1  0
 10 11  1  0
 11 12  1  0
 12 13  1  0
 13 14  1  0
 14 15  1  0
 15 16  1  0
  7 17  1  0
 17 18  2  0
  2 19  1  0
 19 20  2  0
 20 21  1  0
 21 22  2  0
 22 23  1  0
 23 24  2  0
 23 25  1  0
 25 26  1  0
 25 27  1  0
 25 28  1  0
 28 29  1  0
 29 30  1  0
 30 31  1  0
 30 32  1  0
 18  4  1  0
 24 19  1  0
 16 11  1  0
 30 22  1  0
M  END
>  <Synonyms>  (256) 
MOFAROTENE|Mofarotene|Ro-408757

>  <Research Codes>  (256) 
nan

>  <Phase>  (256) 
1

>  <Applicants>  (256) 
nan

>  <USAN Stem>  (256) 
'-arotene'

>  <USAN Year>  (256) 
nan

>  <USAN Stem Definition>  (256) 
arotinoid derivatives

>  <USAN Stem Substem>  (256) 
'-arotene(-arotene)'

>  <First Approval>  (256) 
nan

>  <ATC Codes>  (256) 
nan

>  <Level 4 ATC Codes>  (256) 
nan

>  <Level 3 ATC Codes>  (256) 
nan

>  <Level 2 ATC Codes>  (256) 
nan

>  <Level 1 ATC Codes>  (256) 
nan

>  <Indication Class>  (256) 
nan

>  <Patent>  (256) 
nan

>  <Drug Type>  (256) 
1:Synthetic Small Molecule

>  <Passes Rule of Five>  (256) 
False

>  <First In Class>  (256) 
False

>  <Chirality>  (256) 
Achiral Molecule

>  <Prodrug>  (256) 
False

>  <Oral>  (256) 
False

>  <Parenteral>  (256) 
False

>  <Topical>  (256) 
False

>  <Black Box>  (256) 
False

>  <Availability Type>  (256) 
Unknown

>  <Withdrawn Year>  (256) 
nan

>  <Withdrawn Reason>  (256) 
nan

>  <Withdrawn Country>  (256) 
nan

>  <Withdrawn Class>  (256) 
nan

>  <SMILES>  (256) 
C/C(=C\c1ccc(OCCN2CCOCC2)cc1)c1ccc2c(c1)C(C)(C)CCC2(C)C

>  <InChi Key>  (256) 
OUQPTBCOEKUHBH-LSDHQDQOSA-N

$$$$
CHEMBL270271
     RDKit          2D

 21 23  0  0  0  0  0  0  0  0999 V2000
   -0.5164   -7.1709    0.0000 C   0  0  0  0  0  0  0  0  0  0  0  0
   -0.8282   -5.7037    0.0000 C   0  0  0  0  0  0  0  0  0  0  0  0
    0.2865   -4.7000    0.0000 C   0  0  0  0  0  0  0  0  0  0  0  0
    1.7537   -5.0118    0.0000 C   0  0  0  0  0  0  0  0  0  0  0  0
    2.5037   -3.7128    0.0000 O   0  0  0  0  0  0  0  0  0  0  0  0
    1.5000   -2.5981    0.0000 C   0  0  0  0  0  0  0  0  0  0  0  0
    2.7135   -1.7164    0.0000 C   0  0  0  0  0  0  0  0  0  0  0  0
    4.0838   -2.3265    0.0000 N   0  0  0  0  0  0  0  0  0  0  0  0
    5.3829   -1.5765    0.0000 C   0  0  0  0  0  0  0  0  0  0  0  0
    6.4976   -2.5802    0.0000 N   0  0  0  0  0  0  0  0  0  0  0  0
    5.8875   -3.9505    0.0000 C   0  0  0  0  0  0  0  0  0  0  0  0
    4.3957   -3.7937    0.0000 N   0  0  0  0  0  0  0  0  0  0  0  0
    0.7500   -1.2990    0.0000 C   0  0  0  0  0  0  0  0  0  0  0  0
    1.5000    0.0000    0.0000 C   0  0  0  0  0  0  0  0  0  0  0  0
    0.7500    1.2990    0.0000 C   0  0  0  0  0  0  0  0  0  0  0  0
   -0.7500    1.2990    0.0000 C   0  0  0  0  0  0  0  0  0  0  0  0
   -1.5000    2.5981    0.0000 Cl  0  0  0  0  0  0  0  0  0  0  0  0
   -1.5000    0.0000    0.0000 C   0  0  0  0  0  0  0  0  0  0  0  0
   -0.7500   -1.2990    0.0000 C   0  0  0  0  0  0  0  0  0  0  0  0
   -1.5000   -2.5981    0.0000 Cl  0  0  0  0  0  0  0  0  0  0  0  0
    0.1297   -3.2082    0.0000 O   0  0  0  0  0  0  0  0  0  0  0  0
  1  2  1  0
  2  3  1  0
  3  4  1  0
  4  5  1  0
  5  6  1  0
  6  7  1  0
  7  8  1  0
  8  9  1  0
  9 10  2  0
 10 11  1  0
 11 12  2  0
  6 13  1  0
 13 14  2  0
 14 15  1  0
 15 16  2  0
 16 17  1  0
 16 18  1  0
 18 19  2  0
 19 20  1  0
  6 21  1  0
 21  3  1  0
 12  8  1  0
 19 13  1  0
M  END
>  <Synonyms>  (257) 
CGA-64251|ETACONAZOLE

>  <Research Codes>  (257) 
CGA-64251

>  <Phase>  (257) 
1

>  <Applicants>  (257) 
nan

>  <USAN Stem>  (257) 
'-conazole'

>  <USAN Year>  (257) 
nan

>  <USAN Stem Definition>  (257) 
systemic antifungals (miconazole type)

>  <USAN Stem Substem>  (257) 
'-conazole(-conazole)'

>  <First Approval>  (257) 
nan

>  <ATC Codes>  (257) 
nan

>  <Level 4 ATC Codes>  (257) 
nan

>  <Level 3 ATC Codes>  (257) 
nan

>  <Level 2 ATC Codes>  (257) 
nan

>  <Level 1 ATC Codes>  (257) 
nan

>  <Indication Class>  (257) 
nan

>  <Patent>  (257) 
nan

>  <Drug Type>  (257) 
1:Synthetic Small Molecule

>  <Passes Rule of Five>  (257) 
True

>  <First In Class>  (257) 
False

>  <Chirality>  (257) 
Racemic Mixture

>  <Prodrug>  (257) 
False

>  <Oral>  (257) 
False

>  <Parenteral>  (257) 
False

>  <Topical>  (257) 
False

>  <Black Box>  (257) 
False

>  <Availability Type>  (257) 
Unknown

>  <Withdrawn Year>  (257) 
nan

>  <Withdrawn Reason>  (257) 
nan

>  <Withdrawn Country>  (257) 
nan

>  <Withdrawn Class>  (257) 
nan

>  <SMILES>  (257) 
CCC1COC(Cn2cncn2)(c2ccc(Cl)cc2Cl)O1

>  <InChi Key>  (257) 
DWRKFAJEBUWTQM-UHFFFAOYSA-N

$$$$
CHEMBL16293
     RDKit          2D

 10 11  0  0  0  0  0  0  0  0999 V2000
    1.5000    0.0000    0.0000 C   0  0  0  0  0  0  0  0  0  0  0  0
    0.7500   -1.2990    0.0000 C   0  0  0  0  0  0  0  0  0  0  0  0
   -0.7500   -1.2990    0.0000 C   0  0  0  0  0  0  0  0  0  0  0  0
   -1.5000    0.0000    0.0000 C   0  0  0  0  0  0  0  0  0  0  0  0
   -3.0000    0.0000    0.0000 C   0  0  0  0  0  0  0  0  0  0  0  0
   -3.7500    1.2990    0.0000 C   0  0  0  0  0  0  0  0  0  0  0  0
   -3.0000    2.5981    0.0000 C   0  0  0  0  0  0  0  0  0  0  0  0
   -1.5000    2.5981    0.0000 C   0  0  0  0  0  0  0  0  0  0  0  0
   -0.7500    1.2990    0.0000 C   0  0  0  0  0  0  0  0  0  0  0  0
    0.7500    1.2990    0.0000 C   0  0  0  0  0  0  0  0  0  0  0  0
  1  2  2  0
  2  3  1  0
  3  4  2  0
  4  5  1  0
  5  6  2  0
  6  7  1  0
  7  8  2  0
  8  9  1  0
  9 10  2  0
 10  1  1  0
  9  4  1  0
M  END
>  <Synonyms>  (258) 
NAPHTHALENE|NSC-37565

>  <Research Codes>  (258) 
NSC-37565

>  <Phase>  (258) 
1

>  <Applicants>  (258) 
nan

>  <USAN Stem>  (258) 
nan

>  <USAN Year>  (258) 
nan

>  <USAN Stem Definition>  (258) 
nan

>  <USAN Stem Substem>  (258) 
nan

>  <First Approval>  (258) 
nan

>  <ATC Codes>  (258) 
nan

>  <Level 4 ATC Codes>  (258) 
nan

>  <Level 3 ATC Codes>  (258) 
nan

>  <Level 2 ATC Codes>  (258) 
nan

>  <Level 1 ATC Codes>  (258) 
nan

>  <Indication Class>  (258) 
nan

>  <Patent>  (258) 
nan

>  <Drug Type>  (258) 
1:Synthetic Small Molecule

>  <Passes Rule of Five>  (258) 
True

>  <First In Class>  (258) 
False

>  <Chirality>  (258) 
Achiral Molecule

>  <Prodrug>  (258) 
False

>  <Oral>  (258) 
False

>  <Parenteral>  (258) 
False

>  <Topical>  (258) 
False

>  <Black Box>  (258) 
False

>  <Availability Type>  (258) 
Unknown

>  <Withdrawn Year>  (258) 
nan

>  <Withdrawn Reason>  (258) 
nan

>  <Withdrawn Country>  (258) 
nan

>  <Withdrawn Class>  (258) 
nan

>  <SMILES>  (258) 
c1ccc2ccccc2c1

>  <InChi Key>  (258) 
UFWIBTONFRDIAS-UHFFFAOYSA-N

$$$$
CHEMBL3577885
     RDKit          2D

 32 35  0  0  0  0  0  0  0  0999 V2000
   -5.2500   -3.8971    0.0000 C   0  0  0  0  0  0  0  0  0  0  0  0
   -3.7500   -3.8971    0.0000 C   0  0  0  0  0  0  0  0  0  0  0  0
   -3.0000   -2.5981    0.0000 C   0  0  0  0  0  0  0  0  0  0  0  0
   -1.5000   -2.5981    0.0000 C   0  0  0  0  0  0  0  0  0  0  0  0
   -0.7500   -1.2990    0.0000 C   0  0  0  0  0  0  0  0  0  0  0  0
   -1.5000    0.0000    0.0000 C   0  0  0  0  0  0  0  0  0  0  0  0
   -0.7500    1.2990    0.0000 F   0  0  0  0  0  0  0  0  0  0  0  0
   -3.0000    0.0000    0.0000 C   0  0  0  0  0  0  0  0  0  0  0  0
   -3.7500   -1.2990    0.0000 C   0  0  0  0  0  0  0  0  0  0  0  0
   -3.0000   -5.1962    0.0000 N   0  0  0  0  0  0  0  0  0  0  0  0
   -3.7500   -6.4952    0.0000 C   0  0  0  0  0  0  0  0  0  0  0  0
   -5.2500   -6.4952    0.0000 C   0  0  0  0  0  0  0  0  0  0  0  0
   -6.0000   -5.1962    0.0000 C   0  0  0  0  0  0  0  0  0  0  0  0
   -7.5000   -5.1962    0.0000 C   0  0  0  0  0  0  0  0  0  0  0  0
   -8.2500   -6.4952    0.0000 C   0  0  0  0  0  0  0  0  0  0  0  0
   -7.5000   -7.7942    0.0000 C   0  0  0  0  0  0  0  0  0  0  0  0
   -8.2500   -9.0933    0.0000 C   0  0  0  0  0  0  0  0  0  0  0  0
   -7.5000  -10.3923    0.0000 O   0  0  0  0  0  0  0  0  0  0  0  0
   -9.7500   -9.0933    0.0000 O   0  0  0  0  0  0  0  0  0  0  0  0
   -6.0000   -7.7942    0.0000 C   0  0  0  0  0  0  0  0  0  0  0  0
   -1.5000   -5.1962    0.0000 C   0  0  0  0  0  0  0  0  0  0  0  0
   -0.7500   -3.8971    0.0000 O   0  0  0  0  0  0  0  0  0  0  0  0
   -0.7500   -6.4952    0.0000 C   0  0  0  0  0  0  0  0  0  0  0  0
   -1.5000   -7.7942    0.0000 C   0  0  0  0  0  0  0  0  0  0  0  0
   -0.7500   -9.0933    0.0000 N   0  0  0  0  0  0  0  0  0  0  0  0
    0.7500   -9.0933    0.0000 C   0  0  0  0  0  0  0  0  0  0  0  0
    1.5000  -10.3923    0.0000 C   0  0  0  0  0  0  0  0  0  0  0  0
    3.0000  -10.3923    0.0000 C   0  0  0  0  0  0  0  0  0  0  0  0
    3.7500   -9.0933    0.0000 C   0  0  0  0  0  0  0  0  0  0  0  0
    3.0000   -7.7942    0.0000 C   0  0  0  0  0  0  0  0  0  0  0  0
    1.5000   -7.7942    0.0000 C   0  0  0  0  0  0  0  0  0  0  0  0
    0.7500   -6.4952    0.0000 C   0  0  0  0  0  0  0  0  0  0  0  0
  2  1  1  6
  2  3  1  0
  3  4  2  0
  4  5  1  0
  5  6  2  0
  6  7  1  0
  6  8  1  0
  8  9  2  0
  2 10  1  0
 10 11  1  0
 11 12  1  0
 12 13  2  0
 13 14  1  0
 14 15  2  0
 15 16  1  0
 16 17  1  0
 17 18  2  0
 17 19  1  0
 16 20  2  0
 10 21  1  0
 21 22  2  0
 21 23  1  0
 23 24  2  0
 24 25  1  0
 25 26  2  0
 26 27  1  0
 27 28  2  0
 28 29  1  0
 29 30  2  0
 30 31  1  0
 31 32  2  0
  9  3  1  0
 20 12  1  0
 32 23  1  0
 31 26  1  0
M  END
>  <Synonyms>  (259) 
PF 5105679|PF-05105679

>  <Research Codes>  (259) 
PF 5105679

>  <Phase>  (259) 
1

>  <Applicants>  (259) 
nan

>  <USAN Stem>  (259) 
nan

>  <USAN Year>  (259) 
nan

>  <USAN Stem Definition>  (259) 
nan

>  <USAN Stem Substem>  (259) 
nan

>  <First Approval>  (259) 
nan

>  <ATC Codes>  (259) 
nan

>  <Level 4 ATC Codes>  (259) 
nan

>  <Level 3 ATC Codes>  (259) 
nan

>  <Level 2 ATC Codes>  (259) 
nan

>  <Level 1 ATC Codes>  (259) 
nan

>  <Indication Class>  (259) 
nan

>  <Patent>  (259) 
nan

>  <Drug Type>  (259) 
1:Synthetic Small Molecule

>  <Passes Rule of Five>  (259) 
False

>  <First In Class>  (259) 
False

>  <Chirality>  (259) 
Single Stereoisomer

>  <Prodrug>  (259) 
False

>  <Oral>  (259) 
False

>  <Parenteral>  (259) 
False

>  <Topical>  (259) 
False

>  <Black Box>  (259) 
False

>  <Availability Type>  (259) 
Unknown

>  <Withdrawn Year>  (259) 
nan

>  <Withdrawn Reason>  (259) 
nan

>  <Withdrawn Country>  (259) 
nan

>  <Withdrawn Class>  (259) 
nan

>  <SMILES>  (259) 
C[C@H](c1ccc(F)cc1)N(Cc1cccc(C(=O)O)c1)C(=O)c1cnc2ccccc2c1

>  <InChi Key>  (259) 
BXNMZRPTQFVRFA-QGZVFWFLSA-N

$$$$
CHEMBL551064
     RDKit          2D

 32 37  0  0  0  0  0  0  0  0999 V2000
    3.0000    0.0000    0.0000 N   0  0  0  0  0  0  0  0  0  0  0  0
    1.5000    0.0000    0.0000 C   0  0  0  0  0  0  0  0  0  0  0  0
    0.7500   -1.2990    0.0000 N   0  0  0  0  0  0  0  0  0  0  0  0
   -0.7500   -1.2990    0.0000 C   0  0  0  0  0  0  0  0  0  0  0  0
   -1.5000    0.0000    0.0000 N   0  0  0  0  0  0  0  0  0  0  0  0
   -0.7500    1.2990    0.0000 C   0  0  0  0  0  0  0  0  0  0  0  0
    0.7500    1.2990    0.0000 C   0  0  0  0  0  0  0  0  0  0  0  0
    1.2135    2.7256    0.0000 C   0  0  0  0  0  0  0  0  0  0  0  0
    2.6401    3.1891    0.0000 C   0  0  0  0  0  0  0  0  0  0  0  0
    3.7548    2.1855    0.0000 C   0  0  0  0  0  0  0  0  0  0  0  0
    5.1814    2.6490    0.0000 C   0  0  0  0  0  0  0  0  0  0  0  0
    5.4933    4.1162    0.0000 C   0  0  0  0  0  0  0  0  0  0  0  0
    4.3786    5.1199    0.0000 C   0  0  0  0  0  0  0  0  0  0  0  0
    4.6904    6.5871    0.0000 O   0  0  0  0  0  0  0  0  0  0  0  0
    6.1170    7.0506    0.0000 C   0  0  0  0  0  0  0  0  0  0  0  0
    6.4289    8.5179    0.0000 C   0  0  0  0  0  0  0  0  0  0  0  0
    7.8555    8.9814    0.0000 C   0  0  0  0  0  0  0  0  0  0  0  0
    8.1673   10.4486    0.0000 C   0  0  0  0  0  0  0  0  0  0  0  0
    7.0526   11.4523    0.0000 C   0  0  0  0  0  0  0  0  0  0  0  0
    5.6260   10.9888    0.0000 C   0  0  0  0  0  0  0  0  0  0  0  0
    5.3142    9.5216    0.0000 C   0  0  0  0  0  0  0  0  0  0  0  0
    2.9520    4.6564    0.0000 C   0  0  0  0  0  0  0  0  0  0  0  0
    0.0000    3.6073    0.0000 C   0  0  0  0  0  0  0  0  0  0  0  0
   -1.2135    2.7256    0.0000 N   0  0  0  0  0  0  0  0  0  0  0  0
   -2.6401    3.1891    0.0000 C   0  0  0  0  0  0  0  0  0  0  0  0
   -3.3211    4.5257    0.0000 C   0  0  0  0  0  0  0  0  0  0  0  0
   -4.6576    3.8447    0.0000 C   0  0  0  0  0  0  0  0  0  0  0  0
   -6.0842    4.3082    0.0000 N   0  0  0  0  0  0  0  0  0  0  0  0
   -6.7652    5.6447    0.0000 C   0  0  0  0  0  0  0  0  0  0  0  0
   -8.1017    4.9637    0.0000 C   0  0  0  0  0  0  0  0  0  0  0  0
   -7.4207    3.6272    0.0000 C   0  0  0  0  0  0  0  0  0  0  0  0
   -3.9766    2.5082    0.0000 C   0  0  0  0  0  0  0  0  0  0  0  0
  1  2  2  0
  2  3  1  0
  3  4  1  0
  4  5  2  0
  5  6  1  0
  6  7  2  0
  7  8  1  0
  8  9  1  0
  9 10  2  0
 10 11  1  0
 11 12  2  0
 12 13  1  0
 13 14  1  0
 14 15  1  0
 15 16  1  0
 16 17  2  0
 17 18  1  0
 18 19  2  0
 19 20  1  0
 20 21  2  0
 13 22  2  0
  8 23  2  0
 23 24  1  0
 25 24  1  6
 25 26  1  0
 26 27  1  0
 27 28  1  1
 28 29  1  0
 29 30  1  0
 30 31  1  0
 27 32  1  0
  7  2  1  0
 22  9  1  0
 32 25  1  0
 24  6  1  0
 31 28  1  0
 21 16  1  0
M  END
>  <Synonyms>  (260) 
AEW-541|NVP-AEW541

>  <Research Codes>  (260) 
NVP-AEW541

>  <Phase>  (260) 
1

>  <Applicants>  (260) 
nan

>  <USAN Stem>  (260) 
nan

>  <USAN Year>  (260) 
nan

>  <USAN Stem Definition>  (260) 
nan

>  <USAN Stem Substem>  (260) 
nan

>  <First Approval>  (260) 
nan

>  <ATC Codes>  (260) 
nan

>  <Level 4 ATC Codes>  (260) 
nan

>  <Level 3 ATC Codes>  (260) 
nan

>  <Level 2 ATC Codes>  (260) 
nan

>  <Level 1 ATC Codes>  (260) 
nan

>  <Indication Class>  (260) 
nan

>  <Patent>  (260) 
nan

>  <Drug Type>  (260) 
1:Synthetic Small Molecule

>  <Passes Rule of Five>  (260) 
True

>  <First In Class>  (260) 
False

>  <Chirality>  (260) 
Single Stereoisomer

>  <Prodrug>  (260) 
False

>  <Oral>  (260) 
False

>  <Parenteral>  (260) 
False

>  <Topical>  (260) 
False

>  <Black Box>  (260) 
False

>  <Availability Type>  (260) 
Unknown

>  <Withdrawn Year>  (260) 
nan

>  <Withdrawn Reason>  (260) 
nan

>  <Withdrawn Country>  (260) 
nan

>  <Withdrawn Class>  (260) 
nan

>  <SMILES>  (260) 
Nc1ncnc2c1c(-c1cccc(OCc3ccccc3)c1)cn2[C@H]1C[C@H](N2CCC2)C1

>  <InChi Key>  (260) 
USVCWSAJUAARAL-MEMLXQNLSA-N

$$$$
CHEMBL3087323
     RDKit          2D

 16 16  0  0  0  0  0  0  0  0999 V2000
    2.7760    0.0000    0.0000 C   0  0  0  0  0  0  0  0  0  0  0  0
    1.2760    0.0000    0.0000 C   0  0  0  0  0  0  0  0  0  0  0  0
    0.3943    1.2135    0.0000 N   0  0  0  0  0  0  0  0  0  0  0  0
   -1.0323    0.7500    0.0000 C   0  0  0  0  0  0  0  0  0  0  0  0
   -1.0323   -0.7500    0.0000 C   0  0  0  0  0  0  0  0  0  0  0  0
   -2.2458   -1.6317    0.0000 N   0  0  0  0  0  4  0  0  0  0  0  0
   -3.6161   -1.0216    0.0000 O   0  0  0  0  0  0  0  0  0  0  0  0
   -2.0890   -3.1235    0.0000 O   0  0  0  0  0  1  0  0  0  0  0  0
    0.3943   -1.2135    0.0000 N   0  0  0  0  0  0  0  0  0  0  0  0
    0.8578   -2.6401    0.0000 C   0  0  0  0  0  0  0  0  0  0  0  0
   -0.1459   -3.7548    0.0000 C   0  0  0  0  0  0  0  0  0  0  0  0
    0.3177   -5.1814    0.0000 N   0  0  0  0  0  0  0  0  0  0  0  0
   -0.6860   -6.2961    0.0000 S   0  0  0  0  0  0  0  0  0  0  0  0
   -1.6897   -7.4108    0.0000 N   0  0  0  0  0  0  0  0  0  0  0  0
   -1.8008   -5.2924    0.0000 O   0  0  0  0  0  0  0  0  0  0  0  0
    0.4287   -7.2998    0.0000 O   0  0  0  0  0  0  0  0  0  0  0  0
  1  2  1  0
  2  3  2  0
  3  4  1  0
  4  5  2  0
  5  6  1  0
  6  7  2  0
  6  8  1  0
  5  9  1  0
  9 10  1  0
 10 11  1  0
 11 12  1  0
 12 13  1  0
 13 14  1  0
 13 15  2  0
 13 16  2  0
  9  2  1  0
M  CHG  2   6   1   8  -1
M  END
>  <Synonyms>  (261) 
DTP-348|DTP348

>  <Research Codes>  (261) 
DTP348

>  <Phase>  (261) 
1

>  <Applicants>  (261) 
nan

>  <USAN Stem>  (261) 
nan

>  <USAN Year>  (261) 
nan

>  <USAN Stem Definition>  (261) 
nan

>  <USAN Stem Substem>  (261) 
nan

>  <First Approval>  (261) 
nan

>  <ATC Codes>  (261) 
nan

>  <Level 4 ATC Codes>  (261) 
nan

>  <Level 3 ATC Codes>  (261) 
nan

>  <Level 2 ATC Codes>  (261) 
nan

>  <Level 1 ATC Codes>  (261) 
nan

>  <Indication Class>  (261) 
nan

>  <Patent>  (261) 
nan

>  <Drug Type>  (261) 
1:Synthetic Small Molecule

>  <Passes Rule of Five>  (261) 
True

>  <First In Class>  (261) 
False

>  <Chirality>  (261) 
Achiral Molecule

>  <Prodrug>  (261) 
False

>  <Oral>  (261) 
False

>  <Parenteral>  (261) 
False

>  <Topical>  (261) 
False

>  <Black Box>  (261) 
False

>  <Availability Type>  (261) 
Unknown

>  <Withdrawn Year>  (261) 
nan

>  <Withdrawn Reason>  (261) 
nan

>  <Withdrawn Country>  (261) 
nan

>  <Withdrawn Class>  (261) 
nan

>  <SMILES>  (261) 
Cc1ncc([N+](=O)[O-])n1CCNS(N)(=O)=O

>  <InChi Key>  (261) 
AVSMSXHPIYIKIJ-UHFFFAOYSA-N

$$$$
CHEMBL2181753
     RDKit          2D

 36 38  0  0  0  0  0  0  0  0999 V2000
    5.2500   -3.8971    0.0000 C   0  0  0  0  0  0  0  0  0  0  0  0
    3.7500   -3.8971    0.0000 C   0  0  0  0  0  0  0  0  0  0  0  0
    3.0000   -2.5981    0.0000 N   0  0  0  0  0  0  0  0  0  0  0  0
    1.5000   -2.5981    0.0000 C   0  0  0  0  0  0  0  0  0  0  0  0
    0.7500   -1.2990    0.0000 C   0  0  0  0  0  0  0  0  0  0  0  0
    1.5000    0.0000    0.0000 C   0  0  0  0  0  0  0  0  0  0  0  0
    0.7500    1.2990    0.0000 C   0  0  0  0  0  0  0  0  0  0  0  0
    1.5000    2.5981    0.0000 C   0  0  0  0  0  0  0  0  0  0  0  0
    2.2500    3.8971    0.0000 F   0  0  0  0  0  0  0  0  0  0  0  0
    2.7990    1.8481    0.0000 F   0  0  0  0  0  0  0  0  0  0  0  0
    0.2010    3.3481    0.0000 F   0  0  0  0  0  0  0  0  0  0  0  0
   -0.7500    1.2990    0.0000 C   0  0  0  0  0  0  0  0  0  0  0  0
   -1.5000    0.0000    0.0000 C   0  0  0  0  0  0  0  0  0  0  0  0
   -0.7500   -1.2990    0.0000 C   0  0  0  0  0  0  0  0  0  0  0  0
   -1.5000   -2.5981    0.0000 C   0  0  0  0  0  0  0  0  0  0  0  0
   -3.0000   -2.5981    0.0000 C   0  0  0  0  0  0  0  0  0  0  0  0
   -3.7500   -3.8971    0.0000 C   0  0  0  0  0  0  0  0  0  0  0  0
   -5.2500   -3.8971    0.0000 C   0  0  0  0  0  0  0  0  0  0  0  0
   -6.0000   -2.5981    0.0000 C   0  0  0  0  0  0  0  0  0  0  0  0
   -7.5000   -2.5981    0.0000 O   0  0  0  0  0  0  0  0  0  0  0  0
   -5.2500   -1.2990    0.0000 O   0  0  0  0  0  0  0  0  0  0  0  0
   -3.0000   -5.1962    0.0000 C   0  0  0  0  0  0  0  0  0  0  0  0
   -1.5000   -5.1962    0.0000 C   0  0  0  0  0  0  0  0  0  0  0  0
   -0.7500   -3.8971    0.0000 C   0  0  0  0  0  0  0  0  0  0  0  0
    0.7500   -3.8971    0.0000 O   0  0  0  0  0  0  0  0  0  0  0  0
    1.5000   -5.1962    0.0000 C   0  0  0  0  0  0  0  0  0  0  0  0
    3.7500   -1.2990    0.0000 C   0  0  0  0  0  0  0  0  0  0  0  0
    3.0000   -0.0000    0.0000 O   0  0  0  0  0  0  0  0  0  0  0  0
    5.2500   -1.2990    0.0000 N   0  0  0  0  0  0  0  0  0  0  0  0
    6.0000    0.0000    0.0000 C   0  0  0  0  0  0  0  0  0  0  0  0
    7.5000    0.0000    0.0000 C   0  0  0  0  0  0  0  0  0  0  0  0
    8.2500    1.2990    0.0000 C   0  0  0  0  0  0  0  0  0  0  0  0
    9.7500    1.2990    0.0000 C   0  0  0  0  0  0  0  0  0  0  0  0
   10.5000    0.0000    0.0000 C   0  0  0  0  0  0  0  0  0  0  0  0
    9.7500   -1.2990    0.0000 C   0  0  0  0  0  0  0  0  0  0  0  0
    8.2500   -1.2990    0.0000 C   0  0  0  0  0  0  0  0  0  0  0  0
  1  2  1  0
  2  3  1  0
  3  4  1  0
  4  5  1  0
  5  6  2  0
  6  7  1  0
  7  8  1  0
  8  9  1  0
  8 10  1  0
  8 11  1  0
  7 12  2  0
 12 13  1  0
 13 14  2  0
 14 15  1  0
 15 16  2  0
 16 17  1  0
 17 18  1  0
 18 19  1  0
 19 20  2  0
 19 21  1  0
 17 22  2  0
 22 23  1  0
 23 24  2  0
 24 25  1  0
 25 26  1  0
  3 27  1  0
 27 28  2  0
 27 29  1  0
 29 30  1  0
 30 31  1  0
 31 32  2  0
 32 33  1  0
 33 34  2  0
 34 35  1  0
 35 36  2  0
 14  5  1  0
 24 15  1  0
 36 31  1  0
M  END
>  <Synonyms>  (262) 
AM-211

>  <Research Codes>  (262) 
nan

>  <Phase>  (262) 
1

>  <Applicants>  (262) 
nan

>  <USAN Stem>  (262) 
nan

>  <USAN Year>  (262) 
nan

>  <USAN Stem Definition>  (262) 
nan

>  <USAN Stem Substem>  (262) 
nan

>  <First Approval>  (262) 
nan

>  <ATC Codes>  (262) 
nan

>  <Level 4 ATC Codes>  (262) 
nan

>  <Level 3 ATC Codes>  (262) 
nan

>  <Level 2 ATC Codes>  (262) 
nan

>  <Level 1 ATC Codes>  (262) 
nan

>  <Indication Class>  (262) 
nan

>  <Patent>  (262) 
nan

>  <Drug Type>  (262) 
1:Synthetic Small Molecule

>  <Passes Rule of Five>  (262) 
False

>  <First In Class>  (262) 
False

>  <Chirality>  (262) 
Achiral Molecule

>  <Prodrug>  (262) 
False

>  <Oral>  (262) 
False

>  <Parenteral>  (262) 
False

>  <Topical>  (262) 
False

>  <Black Box>  (262) 
False

>  <Availability Type>  (262) 
Unknown

>  <Withdrawn Year>  (262) 
nan

>  <Withdrawn Reason>  (262) 
nan

>  <Withdrawn Country>  (262) 
nan

>  <Withdrawn Class>  (262) 
nan

>  <SMILES>  (262) 
CCN(Cc1cc(C(F)(F)F)ccc1-c1cc(CC(=O)O)ccc1OC)C(=O)NCc1ccccc1

>  <InChi Key>  (262) 
OPXIRFWNLBDKQB-UHFFFAOYSA-N

$$$$
CHEMBL608806
     RDKit          2D

 23 25  0  0  0  0  0  0  0  0999 V2000
    2.3355    6.4373    0.0000 C   0  0  0  0  0  0  0  0  0  0  0  0
    0.9652    5.8272    0.0000 C   0  0  0  0  0  0  0  0  0  0  0  0
    0.8084    4.3355    0.0000 O   0  0  0  0  0  0  0  0  0  0  0  0
   -0.5619    3.7253    0.0000 C   0  0  0  0  0  0  0  0  0  0  0  0
   -1.7754    4.6070    0.0000 O   0  0  0  0  0  0  0  0  0  0  0  0
   -0.7187    2.2336    0.0000 C   0  0  0  0  0  0  0  0  0  0  0  0
    0.3943    1.2135    0.0000 C   0  0  0  0  0  0  0  0  0  0  0  0
    1.2760    0.0000    0.0000 C   0  0  0  0  0  0  0  0  0  0  0  0
    0.3943   -1.2135    0.0000 C   0  0  0  0  0  0  0  0  0  0  0  0
   -1.0323   -0.7500    0.0000 C   0  0  0  0  0  0  0  0  0  0  0  0
   -2.2458    0.1317    0.0000 C   0  0  0  0  0  0  0  0  0  0  0  0
   -2.0890    1.6235    0.0000 C   0  0  0  0  0  0  0  0  0  0  0  0
   -3.3025    2.5051    0.0000 O   0  0  0  0  0  0  0  0  0  0  0  0
   -4.6729    1.8950    0.0000 C   0  0  0  0  0  0  0  0  0  0  0  0
   -4.8297    0.4033    0.0000 O   0  0  0  0  0  0  0  0  0  0  0  0
   -5.8864    2.7767    0.0000 C   0  0  0  0  0  0  0  0  0  0  0  0
   -5.7296    4.2685    0.0000 C   0  0  0  0  0  0  0  0  0  0  0  0
   -6.9431    5.1502    0.0000 C   0  0  0  0  0  0  0  0  0  0  0  0
   -8.3134    4.5401    0.0000 C   0  0  0  0  0  0  0  0  0  0  0  0
   -8.4702    3.0483    0.0000 C   0  0  0  0  0  0  0  0  0  0  0  0
   -7.2567    2.1666    0.0000 C   0  0  0  0  0  0  0  0  0  0  0  0
   -1.0323    0.7500    0.0000 N   0  0  0  0  0  0  0  0  0  0  0  0
   -1.5447    1.3607    0.0000 C   0  0  0  0  0  0  0  0  0  0  0  0
  1  2  1  0
  2  3  1  0
  3  4  1  0
  4  5  2  0
  4  6  1  0
  6  7  1  0
  7  8  1  0
  8  9  1  0
  9 10  1  0
 10 11  1  0
 11 12  1  0
 12 13  1  6
 13 14  1  0
 14 15  2  0
 14 16  1  0
 16 17  2  0
 17 18  1  0
 18 19  2  0
 19 20  1  0
 20 21  2  0
 10 22  1  0
 22 23  1  0
 12  6  1  0
 21 16  1  0
 22  7  1  0
M  END
>  <Synonyms>  (263) 
COCAETHYLENE|ETHYLCOCAINE|J21.586D

>  <Research Codes>  (263) 
ETHYLCOCAINE|J21.586D

>  <Phase>  (263) 
1

>  <Applicants>  (263) 
nan

>  <USAN Stem>  (263) 
nan

>  <USAN Year>  (263) 
nan

>  <USAN Stem Definition>  (263) 
nan

>  <USAN Stem Substem>  (263) 
nan

>  <First Approval>  (263) 
nan

>  <ATC Codes>  (263) 
nan

>  <Level 4 ATC Codes>  (263) 
nan

>  <Level 3 ATC Codes>  (263) 
nan

>  <Level 2 ATC Codes>  (263) 
nan

>  <Level 1 ATC Codes>  (263) 
nan

>  <Indication Class>  (263) 
nan

>  <Patent>  (263) 
nan

>  <Drug Type>  (263) 
1:Synthetic Small Molecule

>  <Passes Rule of Five>  (263) 
True

>  <First In Class>  (263) 
False

>  <Chirality>  (263) 
Single Stereoisomer

>  <Prodrug>  (263) 
False

>  <Oral>  (263) 
False

>  <Parenteral>  (263) 
False

>  <Topical>  (263) 
False

>  <Black Box>  (263) 
False

>  <Availability Type>  (263) 
Unknown

>  <Withdrawn Year>  (263) 
nan

>  <Withdrawn Reason>  (263) 
nan

>  <Withdrawn Country>  (263) 
nan

>  <Withdrawn Class>  (263) 
nan

>  <SMILES>  (263) 
CCOC(=O)[C@@H]1C2CCC(C[C@@H]1OC(=O)c1ccccc1)N2C

>  <InChi Key>  (263) 
NMPOSNRHZIWLLL-UFFJXHMVSA-N

$$$$
CHEMBL1091250
     RDKit          2D

 28 31  0  0  0  0  0  0  0  0999 V2000
   -2.6401   -3.1891    0.0000 O   0  0  0  0  0  0  0  0  0  0  0  0
   -1.2135   -2.7256    0.0000 C   0  0  0  0  0  0  0  0  0  0  0  0
   -0.0000   -3.6073    0.0000 C   0  0  0  0  0  0  0  0  0  0  0  0
   -0.0000   -5.1073    0.0000 C   0  0  0  0  0  0  0  0  0  0  0  0
   -1.2135   -5.9890    0.0000 N   0  0  0  0  0  0  0  0  0  0  0  0
   -0.7500   -7.4156    0.0000 C   0  0  0  0  0  0  0  0  0  0  0  0
   -1.5000   -8.7146    0.0000 C   0  0  0  0  0  0  0  0  0  0  0  0
   -0.7500  -10.0136    0.0000 C   0  0  0  0  0  0  0  0  0  0  0  0
    0.7500  -10.0136    0.0000 C   0  0  0  0  0  0  0  0  0  0  0  0
    1.5000  -11.3127    0.0000 S   0  0  0  0  0  0  0  0  0  0  0  0
    0.2010  -12.0627    0.0000 O   0  0  0  0  0  0  0  0  0  0  0  0
    2.7990  -10.5627    0.0000 O   0  0  0  0  0  0  0  0  0  0  0  0
    2.2500  -12.6117    0.0000 O   0  0  0  0  0  0  0  0  0  0  0  0
    1.5000   -8.7146    0.0000 C   0  0  0  0  0  0  0  0  0  0  0  0
    0.7500   -7.4156    0.0000 C   0  0  0  0  0  0  0  0  0  0  0  0
    1.2135   -5.9890    0.0000 C   0  0  0  0  0  0  0  0  0  0  0  0
    2.6401   -5.5255    0.0000 O   0  0  0  0  0  0  0  0  0  0  0  0
    1.2135   -2.7256    0.0000 N   0  0  0  0  0  0  0  0  0  0  0  0
    0.7500   -1.2990    0.0000 C   0  0  0  0  0  0  0  0  0  0  0  0
    1.5000    0.0000    0.0000 C   0  0  0  0  0  0  0  0  0  0  0  0
    0.7500    1.2990    0.0000 C   0  0  0  0  0  0  0  0  0  0  0  0
   -0.7500    1.2990    0.0000 C   0  0  0  0  0  0  0  0  0  0  0  0
   -1.5000    2.5981    0.0000 S   0  0  0  0  0  0  0  0  0  0  0  0
   -0.2010    3.3481    0.0000 O   0  0  0  0  0  0  0  0  0  0  0  0
   -2.7990    1.8481    0.0000 O   0  0  0  0  0  0  0  0  0  0  0  0
   -2.2500    3.8971    0.0000 O   0  0  0  0  0  0  0  0  0  0  0  0
   -1.5000    0.0000    0.0000 C   0  0  0  0  0  0  0  0  0  0  0  0
   -0.7500   -1.2990    0.0000 C   0  0  0  0  0  0  0  0  0  0  0  0
  1  2  1  0
  2  3  2  0
  3  4  1  0
  4  5  2  0
  5  6  1  0
  6  7  2  0
  7  8  1  0
  8  9  2  0
  9 10  1  0
 10 11  2  0
 10 12  2  0
 10 13  1  0
  9 14  1  0
 14 15  2  0
 15 16  1  0
 16 17  2  0
  3 18  1  0
 18 19  1  0
 19 20  2  0
 20 21  1  0
 21 22  2  0
 22 23  1  0
 23 24  2  0
 23 25  2  0
 23 26  1  0
 22 27  1  0
 27 28  2  0
 28  2  1  0
 16  4  1  0
 28 19  1  0
 15  6  1  0
M  END
>  <Synonyms>  (264) 
INDIGOTINDISULFONATE|NSC-8646

>  <Research Codes>  (264) 
NSC-8646

>  <Phase>  (264) 
1

>  <Applicants>  (264) 
nan

>  <USAN Stem>  (264) 
nan

>  <USAN Year>  (264) 
nan

>  <USAN Stem Definition>  (264) 
nan

>  <USAN Stem Substem>  (264) 
nan

>  <First Approval>  (264) 
nan

>  <ATC Codes>  (264) 
nan

>  <Level 4 ATC Codes>  (264) 
nan

>  <Level 3 ATC Codes>  (264) 
nan

>  <Level 2 ATC Codes>  (264) 
nan

>  <Level 1 ATC Codes>  (264) 
nan

>  <Indication Class>  (264) 
Diagnostic Aid (cystoscopy)

>  <Patent>  (264) 
nan

>  <Drug Type>  (264) 
1:Synthetic Small Molecule

>  <Passes Rule of Five>  (264) 
True

>  <First In Class>  (264) 
False

>  <Chirality>  (264) 
Achiral Molecule

>  <Prodrug>  (264) 
False

>  <Oral>  (264) 
False

>  <Parenteral>  (264) 
False

>  <Topical>  (264) 
False

>  <Black Box>  (264) 
False

>  <Availability Type>  (264) 
Unknown

>  <Withdrawn Year>  (264) 
nan

>  <Withdrawn Reason>  (264) 
nan

>  <Withdrawn Country>  (264) 
nan

>  <Withdrawn Class>  (264) 
nan

>  <SMILES>  (264) 
O=C1/C(=C2\Nc3ccc(S(=O)(=O)O)cc3C2=O)Nc2ccc(S(=O)(=O)O)cc21

>  <InChi Key>  (264) 
JMEVHYCNAPFOAB-UHFFFAOYSA-N

$$$$
CHEMBL378031
     RDKit          2D

 31 36  0  0  0  0  0  0  0  0999 V2000
    3.7894   -5.0852    0.0000 C   0  0  0  0  0  0  0  0  0  0  0  0
    3.0000   -5.1962    0.0000 C   0  0  0  0  0  0  0  0  0  0  0  0
    3.7500   -3.8971    0.0000 C   0  0  0  0  0  0  0  0  0  0  0  0
    3.0000   -2.5981    0.0000 C   0  0  0  0  0  0  0  0  0  0  0  0
    1.5000   -2.5981    0.0000 C   0  0  0  0  0  0  0  0  0  0  0  0
    0.7500   -1.2990    0.0000 C   0  0  0  0  0  0  0  0  0  0  0  0
    1.5000    0.0000    0.0000 C   0  0  0  0  0  0  0  0  0  0  0  0
    0.7500    1.2990    0.0000 C   0  0  0  0  0  0  0  0  0  0  0  0
   -0.7500    1.2990    0.0000 C   0  0  0  0  0  0  0  0  0  0  0  0
   -1.5000    2.5981    0.0000 O   0  0  0  0  0  0  0  0  0  0  0  0
   -1.5000    0.0000    0.0000 C   0  0  0  0  0  0  0  0  0  0  0  0
   -0.7500   -1.2990    0.0000 C   0  0  0  0  0  0  0  0  0  0  0  0
   -1.5000   -2.5981    0.0000 C   0  0  0  0  0  0  0  0  0  0  0  0
   -0.7500   -3.8971    0.0000 C   0  0  0  0  0  0  0  0  0  0  0  0
    0.7500   -3.8971    0.0000 C   0  0  0  0  0  0  0  0  0  0  0  0
    1.5000   -5.1962    0.0000 C   0  0  0  0  0  0  0  0  0  0  0  0
    1.0365   -6.6227    0.0000 C   0  0  0  0  0  0  0  0  0  0  0  0
    2.2500   -7.5044    0.0000 C   0  0  0  0  0  0  0  0  0  0  0  0
    2.7135   -8.9310    0.0000 O   0  0  0  0  0  0  0  0  0  0  0  0
    4.2135   -8.9310    0.0000 C   0  0  0  0  0  0  0  0  0  0  0  0
    5.0952  -10.1445    0.0000 C   0  0  0  0  0  0  0  0  0  0  0  0
    6.5952  -10.1445    0.0000 C   0  0  0  0  0  0  0  0  0  0  0  0
    7.0587  -11.5711    0.0000 C   0  0  0  0  0  0  0  0  0  0  0  0
    5.8452  -12.4528    0.0000 C   0  0  0  0  0  0  0  0  0  0  0  0
    4.6317  -11.5711    0.0000 O   0  0  0  0  0  0  0  0  0  0  0  0
    4.6771   -7.5044    0.0000 O   0  0  0  0  0  0  0  0  0  0  0  0
    3.4635   -6.6227    0.0000 C   0  0  0  0  0  0  0  0  0  0  0  0
    4.6771   -5.7411    0.0000 C   0  0  0  0  0  0  0  0  0  0  0  0
    4.5937   -4.9483    0.0000 O   0  0  0  0  0  0  0  0  0  0  0  0
    6.0474   -6.3512    0.0000 C   0  0  0  0  0  0  0  0  0  0  0  0
    7.2609   -5.4695    0.0000 F   0  0  0  0  0  0  0  0  0  0  0  0
  2  1  1  1
  2  3  1  0
  3  4  1  0
  5  4  1  1
  5  6  1  0
  6  7  1  0
  7  8  1  0
  8  9  1  0
  9 10  2  0
  9 11  1  0
 11 12  1  0
 12 13  1  0
 13 14  1  0
 15 14  1  6
 15 16  1  0
 16 17  1  1
 18 17  1  6
 18 19  1  0
 19 20  1  0
 20 21  1  6
 21 22  2  0
 22 23  1  0
 23 24  2  0
 24 25  1  0
 20 26  1  0
 26 27  1  0
 27 28  1  1
 28 29  2  0
 28 30  1  0
 30 31  1  0
 16  2  1  0
 27 18  1  0
 27  2  1  0
 15  5  1  0
 25 21  1  0
 12  6  2  0
M  END
>  <Synonyms>  (265) 
nan

>  <Research Codes>  (265) 
nan

>  <Phase>  (265) 
1

>  <Applicants>  (265) 
nan

>  <USAN Stem>  (265) 
'-gest-; -ster-'

>  <USAN Year>  (265) 
nan

>  <USAN Stem Definition>  (265) 
progestins; steroids (androgens, anabolics)

>  <USAN Stem Substem>  (265) 
'-gest-(-gest-); -ster-(-ster-)'

>  <First Approval>  (265) 
nan

>  <ATC Codes>  (265) 
nan

>  <Level 4 ATC Codes>  (265) 
nan

>  <Level 3 ATC Codes>  (265) 
nan

>  <Level 2 ATC Codes>  (265) 
nan

>  <Level 1 ATC Codes>  (265) 
nan

>  <Indication Class>  (265) 
nan

>  <Patent>  (265) 
nan

>  <Drug Type>  (265) 
7:Natural Product-derived

>  <Passes Rule of Five>  (265) 
True

>  <First In Class>  (265) 
False

>  <Chirality>  (265) 
Single Stereoisomer

>  <Prodrug>  (265) 
False

>  <Oral>  (265) 
False

>  <Parenteral>  (265) 
False

>  <Topical>  (265) 
False

>  <Black Box>  (265) 
False

>  <Availability Type>  (265) 
Unknown

>  <Withdrawn Year>  (265) 
nan

>  <Withdrawn Reason>  (265) 
nan

>  <Withdrawn Country>  (265) 
nan

>  <Withdrawn Class>  (265) 
nan

>  <SMILES>  (265) 
C[C@]12CC[C@@H]3[C@H]4CCC(=O)C=C4CC[C@H]3[C@@H]1C[C@H]1O[C@@H](c3ccco3)O[C@]12C(=O)CF

>  <InChi Key>  (265) 
OWROKUIYYIYZSJ-USHQRSHTSA-N

$$$$
CHEMBL3939284
     RDKit          2D

 27 28  0  0  0  0  0  0  0  0999 V2000
    4.7010   -3.3481    0.0000 C   0  0  0  0  0  0  0  0  0  0  0  0
    6.0000   -2.5981    0.0000 C   0  0  0  0  0  0  0  0  0  0  0  0
    7.2990   -1.8481    0.0000 C   0  0  0  0  0  0  0  0  0  0  0  0
    6.7500   -3.8971    0.0000 N   0  0  0  0  0  0  0  0  0  0  0  0
    5.2500   -1.2990    0.0000 C   0  0  0  0  0  0  0  0  0  0  0  0
    3.7500   -1.2990    0.0000 N   0  0  0  0  0  0  0  0  0  0  0  0
    3.0000    0.0000    0.0000 C   0  0  0  0  0  0  0  0  0  0  0  0
    3.7500    1.2990    0.0000 O   0  0  0  0  0  0  0  0  0  0  0  0
    1.5000    0.0000    0.0000 C   0  0  0  0  0  0  0  0  0  0  0  0
    0.7500   -1.2990    0.0000 C   0  0  0  0  0  0  0  0  0  0  0  0
   -0.7500   -1.2990    0.0000 C   0  0  0  0  0  0  0  0  0  0  0  0
   -1.5000    0.0000    0.0000 C   0  0  0  0  0  0  0  0  0  0  0  0
   -3.0000    0.0000    0.0000 C   0  0  0  0  0  0  0  0  0  0  0  0
   -4.5000    0.0000    0.0000 C   0  0  0  0  0  0  0  0  0  0  0  0
   -6.0000    0.0000    0.0000 C   0  0  0  0  0  0  0  0  0  0  0  0
   -7.5000    0.0000    0.0000 C   0  0  0  0  0  0  0  0  0  0  0  0
   -9.0000    0.0000    0.0000 C   0  0  0  0  0  0  0  0  0  0  0  0
  -10.2990   -0.7500    0.0000 C   0  0  0  0  0  0  0  0  0  0  0  0
  -10.2990    0.7500    0.0000 C   0  0  0  0  0  0  0  0  0  0  0  0
  -11.0490    2.0490    0.0000 C   0  0  0  0  0  0  0  0  0  0  0  0
  -10.2990    3.3481    0.0000 O   0  0  0  0  0  0  0  0  0  0  0  0
   -0.7500    1.2990    0.0000 C   0  0  0  0  0  0  0  0  0  0  0  0
    0.7500    1.2990    0.0000 C   0  0  0  0  0  0  0  0  0  0  0  0
    6.0000    0.0000    0.0000 C   0  0  0  0  0  0  0  0  0  0  0  0
    5.2500    1.2990    0.0000 O   0  0  0  0  0  0  0  0  0  0  0  0
    7.5000    0.0000    0.0000 N   0  0  0  0  0  0  0  0  0  0  0  0
    8.2500    1.2990    0.0000 O   0  0  0  0  0  0  0  0  0  0  0  0
  1  2  1  0
  2  3  1  0
  2  4  1  0
  2  5  1  0
  5  6  1  0
  6  7  1  0
  7  8  2  0
  7  9  1  0
  9 10  2  0
 10 11  1  0
 11 12  2  0
 12 13  1  0
 13 14  3  0
 14 15  1  0
 15 16  3  0
 17 16  1  6
 17 18  1  0
 18 19  1  0
 19 20  1  1
 20 21  1  0
 12 22  1  0
 22 23  2  0
  5 24  1  0
 24 25  1  0
 24 26  2  3
 26 27  1  0
 23  9  1  0
 19 17  1  0
M  END
>  <Synonyms>  (266) 
ACHN-975

>  <Research Codes>  (266) 
ACHN-975

>  <Phase>  (266) 
1

>  <Applicants>  (266) 
nan

>  <USAN Stem>  (266) 
nan

>  <USAN Year>  (266) 
nan

>  <USAN Stem Definition>  (266) 
nan

>  <USAN Stem Substem>  (266) 
nan

>  <First Approval>  (266) 
nan

>  <ATC Codes>  (266) 
nan

>  <Level 4 ATC Codes>  (266) 
nan

>  <Level 3 ATC Codes>  (266) 
nan

>  <Level 2 ATC Codes>  (266) 
nan

>  <Level 1 ATC Codes>  (266) 
nan

>  <Indication Class>  (266) 
nan

>  <Patent>  (266) 
nan

>  <Drug Type>  (266) 
1:Synthetic Small Molecule

>  <Passes Rule of Five>  (266) 
True

>  <First In Class>  (266) 
False

>  <Chirality>  (266) 
Single Stereoisomer

>  <Prodrug>  (266) 
False

>  <Oral>  (266) 
False

>  <Parenteral>  (266) 
False

>  <Topical>  (266) 
False

>  <Black Box>  (266) 
False

>  <Availability Type>  (266) 
Unknown

>  <Withdrawn Year>  (266) 
nan

>  <Withdrawn Reason>  (266) 
nan

>  <Withdrawn Country>  (266) 
nan

>  <Withdrawn Class>  (266) 
nan

>  <SMILES>  (266) 
CC(C)(N)[C@H](NC(=O)c1ccc(C#CC#C[C@@H]2C[C@H]2CO)cc1)C(=O)NO

>  <InChi Key>  (266) 
GOCUUDXEOKIQRU-GARXDOFDSA-N

$$$$
CHEMBL1609891
     RDKit          2D

 14 13  0  0  0  0  0  0  0  0999 V2000
    0.0000    0.0000    0.0000 C   0  0  0  0  0  0  0  0  0  0  0  0
    1.2990    0.7500    0.0000 C   0  0  0  0  0  0  0  0  0  0  0  0
    2.5981   -0.0000    0.0000 C   0  0  0  0  0  0  0  0  0  0  0  0
    3.8971    0.7500    0.0000 C   0  0  0  0  0  0  0  0  0  0  0  0
    5.1962   -0.0000    0.0000 S   0  0  0  0  0  5  0  0  0  0  0  0
    5.9462    1.2990    0.0000 N   0  0  0  0  0  0  0  0  0  0  0  0
    4.4462   -1.2990    0.0000 O   0  0  0  0  0  1  0  0  0  0  0  0
    6.4952   -0.7500    0.0000 C   0  0  0  0  0  0  0  0  0  0  0  0
    6.4952   -2.2500    0.0000 C   0  0  0  0  0  0  0  0  0  0  0  0
    7.7942   -3.0000    0.0000 C   0  0  0  0  0  0  0  0  0  0  0  0
    9.0933   -2.2500    0.0000 N   0  0  0  0  0  0  0  0  0  0  0  0
    7.7942   -4.5000    0.0000 C   0  0  0  0  0  0  0  0  0  0  0  0
    9.0933   -5.2500    0.0000 O   0  0  0  0  0  0  0  0  0  0  0  0
    6.4952   -5.2500    0.0000 O   0  0  0  0  0  0  0  0  0  0  0  0
  1  2  1  0
  2  3  1  0
  3  4  1  0
  4  5  1  0
  5  6  2  0
  5  7  1  0
  5  8  1  0
  8  9  1  0
  9 10  1  0
 10 11  1  0
 10 12  1  0
 12 13  2  0
 12 14  1  0
M  CHG  2   5   1   7  -1
M  END
>  <Synonyms>  (267) 
BUTHIONINE SULFOXIMINE|L-Buthionine(S,R)-Sulfoximine|L-Buthionine-Sulfoximine|NSC-381100

>  <Research Codes>  (267) 
NSC-381100

>  <Phase>  (267) 
1

>  <Applicants>  (267) 
nan

>  <USAN Stem>  (267) 
nan

>  <USAN Year>  (267) 
nan

>  <USAN Stem Definition>  (267) 
nan

>  <USAN Stem Substem>  (267) 
nan

>  <First Approval>  (267) 
nan

>  <ATC Codes>  (267) 
nan

>  <Level 4 ATC Codes>  (267) 
nan

>  <Level 3 ATC Codes>  (267) 
nan

>  <Level 2 ATC Codes>  (267) 
nan

>  <Level 1 ATC Codes>  (267) 
nan

>  <Indication Class>  (267) 
nan

>  <Patent>  (267) 
nan

>  <Drug Type>  (267) 
1:Synthetic Small Molecule

>  <Passes Rule of Five>  (267) 
True

>  <First In Class>  (267) 
False

>  <Chirality>  (267) 
Single Stereoisomer

>  <Prodrug>  (267) 
False

>  <Oral>  (267) 
False

>  <Parenteral>  (267) 
False

>  <Topical>  (267) 
False

>  <Black Box>  (267) 
False

>  <Availability Type>  (267) 
Unknown

>  <Withdrawn Year>  (267) 
nan

>  <Withdrawn Reason>  (267) 
nan

>  <Withdrawn Country>  (267) 
nan

>  <Withdrawn Class>  (267) 
nan

>  <SMILES>  (267) 
CCCC[S+](=N)([O-])CC[C@H](N)C(=O)O

>  <InChi Key>  (267) 
WDFRNLYXRQXXFS-UHFFFAOYSA-N

$$$$
CHEMBL2103884
     RDKit          2D

 37 39  0  0  0  0  0  0  0  0999 V2000
   -9.7500   -1.2990    0.0000 C   0  0  0  0  0  0  0  0  0  0  0  0
   -8.2500   -1.2990    0.0000 O   0  0  0  0  0  0  0  0  0  0  0  0
   -7.5000   -2.5981    0.0000 C   0  0  0  0  0  0  0  0  0  0  0  0
   -6.0000   -2.5981    0.0000 C   0  0  0  0  0  0  0  0  0  0  0  0
   -5.2500   -1.2990    0.0000 N   0  0  0  0  0  0  0  0  0  0  0  0
   -6.0000    0.0000    0.0000 C   0  0  0  0  0  0  0  0  0  0  0  0
   -7.5000    0.0000    0.0000 O   0  0  0  0  0  0  0  0  0  0  0  0
   -5.2500    1.2990    0.0000 C   0  0  0  0  0  0  0  0  0  0  0  0
   -5.8601    2.6694    0.0000 C   0  0  0  0  0  0  0  0  0  0  0  0
   -4.7454    3.6731    0.0000 N   0  0  0  0  0  0  0  0  0  0  0  0
   -3.4463    2.9231    0.0000 C   0  0  0  0  0  0  0  0  0  0  0  0
   -2.0760    3.5332    0.0000 C   0  0  0  0  0  0  0  0  0  0  0  0
   -3.7582    1.4558    0.0000 S   0  0  0  0  0  0  0  0  0  0  0  0
   -5.2500   -3.8971    0.0000 C   0  0  0  0  0  0  0  0  0  0  0  0
   -6.0000   -5.1962    0.0000 O   0  0  0  0  0  0  0  0  0  0  0  0
   -3.7500   -3.8971    0.0000 N   0  0  0  0  0  0  0  0  0  0  0  0
   -3.0000   -5.1962    0.0000 C   0  0  0  0  0  0  0  0  0  0  0  0
   -3.7500   -6.4952    0.0000 C   0  0  0  0  0  0  0  0  0  0  0  0
   -5.2500   -6.4952    0.0000 O   0  0  0  0  0  0  0  0  0  0  0  0
   -6.0000   -7.7942    0.0000 C   0  0  0  0  0  0  0  0  0  0  0  0
   -1.5000   -5.1962    0.0000 C   0  0  0  0  0  0  0  0  0  0  0  0
   -0.7500   -6.4952    0.0000 O   0  0  0  0  0  0  0  0  0  0  0  0
   -0.7500   -3.8971    0.0000 N   0  0  0  0  0  0  0  0  0  0  0  0
    0.7500   -3.8971    0.0000 C   0  0  0  0  0  0  0  0  0  0  0  0
    1.5000   -2.5981    0.0000 C   0  0  0  0  0  0  0  0  0  0  0  0
    0.7500   -1.2990    0.0000 C   0  0  0  0  0  0  0  0  0  0  0  0
    1.5000    0.0000    0.0000 C   0  0  0  0  0  0  0  0  0  0  0  0
    0.7500    1.2990    0.0000 C   0  0  0  0  0  0  0  0  0  0  0  0
   -0.7500    1.2990    0.0000 C   0  0  0  0  0  0  0  0  0  0  0  0
   -1.5000    0.0000    0.0000 C   0  0  0  0  0  0  0  0  0  0  0  0
   -0.7500   -1.2990    0.0000 C   0  0  0  0  0  0  0  0  0  0  0  0
    1.5000   -5.1962    0.0000 C   0  0  0  0  0  0  0  0  0  0  0  0
    0.7500   -6.4952    0.0000 O   0  0  0  0  0  0  0  0  0  0  0  0
    3.0000   -5.1962    0.0000 C   0  0  0  0  0  0  0  0  0  0  0  0
    3.2605   -3.7189    0.0000 C   0  0  0  0  0  0  0  0  0  0  0  0
    4.4095   -5.7092    0.0000 C   0  0  0  0  0  0  0  0  0  0  0  0
    3.2605   -6.6734    0.0000 O   0  0  0  0  0  0  0  0  0  0  0  0
  1  2  1  0
  2  3  1  0
  4  3  1  6
  4  5  1  0
  5  6  1  0
  6  7  2  0
  6  8  1  0
  8  9  2  0
  9 10  1  0
 10 11  2  0
 11 12  1  0
 11 13  1  0
  4 14  1  0
 14 15  2  0
 14 16  1  0
 16 17  1  0
 17 18  1  0
 18 19  1  0
 19 20  1  0
 17 21  1  0
 21 22  2  0
 21 23  1  0
 23 24  1  0
 24 25  1  0
 25 26  1  0
 26 27  2  0
 27 28  1  0
 28 29  2  0
 29 30  1  0
 30 31  2  0
 24 32  1  0
 32 33  2  0
 32 34  1  0
 34 35  1  6
 34 36  1  0
 36 37  1  0
 13  8  1  0
 31 26  1  0
 37 34  1  0
M  END
>  <Synonyms>  (268) 
ONX 0912|OPROZOMIB

>  <Research Codes>  (268) 
ONX-0912

>  <Phase>  (268) 
1

>  <Applicants>  (268) 
nan

>  <USAN Stem>  (268) 
'-zomib'

>  <USAN Year>  (268) 
2011.0

>  <USAN Stem Definition>  (268) 
proteozome inhibitors

>  <USAN Stem Substem>  (268) 
'-zomib(-zomib)'

>  <First Approval>  (268) 
nan

>  <ATC Codes>  (268) 
nan

>  <Level 4 ATC Codes>  (268) 
nan

>  <Level 3 ATC Codes>  (268) 
nan

>  <Level 2 ATC Codes>  (268) 
nan

>  <Level 1 ATC Codes>  (268) 
nan

>  <Indication Class>  (268) 
nan

>  <Patent>  (268) 
nan

>  <Drug Type>  (268) 
1:Synthetic Small Molecule

>  <Passes Rule of Five>  (268) 
False

>  <First In Class>  (268) 
False

>  <Chirality>  (268) 
Single Stereoisomer

>  <Prodrug>  (268) 
False

>  <Oral>  (268) 
False

>  <Parenteral>  (268) 
False

>  <Topical>  (268) 
False

>  <Black Box>  (268) 
False

>  <Availability Type>  (268) 
Unknown

>  <Withdrawn Year>  (268) 
nan

>  <Withdrawn Reason>  (268) 
nan

>  <Withdrawn Country>  (268) 
nan

>  <Withdrawn Class>  (268) 
nan

>  <SMILES>  (268) 
COC[C@H](NC(=O)c1cnc(C)s1)C(=O)N[C@@H](COC)C(=O)N[C@@H](Cc1ccccc1)C(=O)[C@@]1(C)CO1

>  <InChi Key>  (268) 
SWZXEVABPLUDIO-RITKHTKHSA-N

$$$$
CHEMBL4297543
     RDKit          2D

 19 19  0  0  0  0  0  0  0  0999 V2000
   10.5000   -5.1962    0.0000 C   0  0  0  0  0  0  0  0  0  0  0  0
    9.7500   -3.8971    0.0000 O   0  0  0  0  0  0  0  0  0  0  0  0
    8.2500   -3.8971    0.0000 C   0  0  0  0  0  0  0  0  0  0  0  0
    7.5000   -2.5981    0.0000 C   0  0  0  0  0  0  0  0  0  0  0  0
    6.0000   -2.5981    0.0000 C   0  0  0  0  0  0  0  0  0  0  0  0
    5.2500   -1.2990    0.0000 C   0  0  0  0  0  0  0  0  0  0  0  0
    6.0000    0.0000    0.0000 O   0  0  0  0  0  0  0  0  0  0  0  0
    3.7500   -1.2990    0.0000 N   0  0  0  0  0  0  0  0  0  0  0  0
    3.0000    0.0000    0.0000 C   0  0  0  0  0  0  0  0  0  0  0  0
    1.5000    0.0000    0.0000 C   0  0  0  0  0  0  0  0  0  0  0  0
    0.7500   -1.2990    0.0000 C   0  0  0  0  0  0  0  0  0  0  0  0
   -0.7500   -1.2990    0.0000 C   0  0  0  0  0  0  0  0  0  0  0  0
   -1.5000    0.0000    0.0000 C   0  0  0  0  0  0  0  0  0  0  0  0
   -3.0000    0.0000    0.0000 C   0  0  0  0  0  0  0  0  0  0  0  0
   -4.5000    0.0000    0.0000 F   0  0  0  0  0  0  0  0  0  0  0  0
   -3.0000    1.5000    0.0000 F   0  0  0  0  0  0  0  0  0  0  0  0
   -3.0000   -1.5000    0.0000 F   0  0  0  0  0  0  0  0  0  0  0  0
   -0.7500    1.2990    0.0000 C   0  0  0  0  0  0  0  0  0  0  0  0
    0.7500    1.2990    0.0000 C   0  0  0  0  0  0  0  0  0  0  0  0
  1  2  1  0
  2  3  1  0
  3  4  1  0
  4  5  1  0
  5  6  1  0
  6  7  2  0
  6  8  1  0
  8  9  1  0
  9 10  1  0
 10 11  2  0
 11 12  1  0
 12 13  2  0
 13 14  1  0
 14 15  1  0
 14 16  1  0
 14 17  1  0
 13 18  1  0
 18 19  2  0
 19 10  1  0
M  END
>  <Synonyms>  (269) 
GET 73|GET-73

>  <Research Codes>  (269) 
nan

>  <Phase>  (269) 
1

>  <Applicants>  (269) 
nan

>  <USAN Stem>  (269) 
nan

>  <USAN Year>  (269) 
nan

>  <USAN Stem Definition>  (269) 
nan

>  <USAN Stem Substem>  (269) 
nan

>  <First Approval>  (269) 
nan

>  <ATC Codes>  (269) 
nan

>  <Level 4 ATC Codes>  (269) 
nan

>  <Level 3 ATC Codes>  (269) 
nan

>  <Level 2 ATC Codes>  (269) 
nan

>  <Level 1 ATC Codes>  (269) 
nan

>  <Indication Class>  (269) 
nan

>  <Patent>  (269) 
nan

>  <Drug Type>  (269) 
1:Synthetic Small Molecule

>  <Passes Rule of Five>  (269) 
True

>  <First In Class>  (269) 
False

>  <Chirality>  (269) 
Achiral Molecule

>  <Prodrug>  (269) 
False

>  <Oral>  (269) 
False

>  <Parenteral>  (269) 
False

>  <Topical>  (269) 
False

>  <Black Box>  (269) 
False

>  <Availability Type>  (269) 
Unknown

>  <Withdrawn Year>  (269) 
nan

>  <Withdrawn Reason>  (269) 
nan

>  <Withdrawn Country>  (269) 
nan

>  <Withdrawn Class>  (269) 
nan

>  <SMILES>  (269) 
COCCCC(=O)NCc1ccc(C(F)(F)F)cc1

>  <InChi Key>  (269) 
QLZOWJNFLXSDSH-UHFFFAOYSA-N

$$$$
CHEMBL440115
     RDKit          2D

 28 31  0  0  0  0  0  0  0  0999 V2000
   -5.4933   -4.1162    0.0000 O   0  0  0  0  0  0  0  0  0  0  0  0
   -4.3786   -5.1199    0.0000 C   0  0  0  0  0  0  0  0  0  0  0  0
   -2.9520   -4.6564    0.0000 C   0  0  0  0  0  0  0  0  0  0  0  0
   -2.6401   -3.1891    0.0000 C   0  0  0  0  0  0  0  0  0  0  0  0
   -1.2135   -2.7256    0.0000 C   0  0  0  0  0  0  0  0  0  0  0  0
    0.0000   -3.6073    0.0000 C   0  0  0  0  0  0  0  0  0  0  0  0
    0.0000   -5.1073    0.0000 C   0  0  0  0  0  0  0  0  0  0  0  0
   -1.2990   -5.8573    0.0000 C   0  0  0  0  0  0  0  0  0  0  0  0
   -1.2990   -7.3573    0.0000 C   0  0  0  0  0  0  0  0  0  0  0  0
    0.0000   -8.1073    0.0000 C   0  0  0  0  0  0  0  0  0  0  0  0
    1.2990   -7.3573    0.0000 C   0  0  0  0  0  0  0  0  0  0  0  0
    1.2990   -5.8573    0.0000 C   0  0  0  0  0  0  0  0  0  0  0  0
    1.2135   -2.7256    0.0000 N   0  0  0  0  0  0  0  0  0  0  0  0
    0.7500   -1.2990    0.0000 N   0  0  0  0  0  0  0  0  0  0  0  0
    1.5000    0.0000    0.0000 C   0  0  0  0  0  0  0  0  0  0  0  0
    0.7500    1.2990    0.0000 C   0  0  0  0  0  0  0  0  0  0  0  0
   -0.7500    1.2990    0.0000 C   0  0  0  0  0  0  0  0  0  0  0  0
   -1.5000    0.0000    0.0000 C   0  0  0  0  0  0  0  0  0  0  0  0
   -0.7500   -1.2990    0.0000 C   0  0  0  0  0  0  0  0  0  0  0  0
   -4.6904   -6.5871    0.0000 N   0  0  0  0  0  0  0  0  0  0  0  0
   -6.1170   -7.0506    0.0000 C   0  0  0  0  0  0  0  0  0  0  0  0
   -6.4289   -8.5179    0.0000 C   0  0  0  0  0  0  0  0  0  0  0  0
   -5.3142   -9.5216    0.0000 C   0  0  0  0  0  0  0  0  0  0  0  0
   -3.8876   -9.0580    0.0000 C   0  0  0  0  0  0  0  0  0  0  0  0
   -3.5757   -7.5908    0.0000 C   0  0  0  0  0  0  0  0  0  0  0  0
   -2.1491   -7.1273    0.0000 C   0  0  0  0  0  0  0  0  0  0  0  0
   -1.0344   -8.1310    0.0000 C   0  0  0  0  0  0  0  0  0  0  0  0
   -1.3463   -9.5982    0.0000 O   0  0  0  0  0  0  0  0  0  0  0  0
  1  2  2  0
  2  3  1  0
  3  4  2  0
  4  5  1  0
  5  6  1  0
  6  7  1  0
  7  8  2  0
  8  9  1  0
  9 10  2  0
 10 11  1  0
 11 12  2  0
  6 13  2  0
 13 14  1  0
 14 15  1  0
 15 16  2  0
 16 17  1  0
 17 18  2  0
 18 19  1  0
  2 20  1  0
 20 21  1  0
 21 22  1  0
 22 23  1  0
 23 24  1  0
 24 25  1  0
 25 26  1  1
 26 27  1  0
 27 28  1  0
 19  5  2  0
 25 20  1  0
 12  7  1  0
 19 14  1  0
M  END
>  <Synonyms>  (270) 
FK-453|FK453

>  <Research Codes>  (270) 
FK-453

>  <Phase>  (270) 
1

>  <Applicants>  (270) 
nan

>  <USAN Stem>  (270) 
nan

>  <USAN Year>  (270) 
nan

>  <USAN Stem Definition>  (270) 
nan

>  <USAN Stem Substem>  (270) 
nan

>  <First Approval>  (270) 
nan

>  <ATC Codes>  (270) 
nan

>  <Level 4 ATC Codes>  (270) 
nan

>  <Level 3 ATC Codes>  (270) 
nan

>  <Level 2 ATC Codes>  (270) 
nan

>  <Level 1 ATC Codes>  (270) 
nan

>  <Indication Class>  (270) 
nan

>  <Patent>  (270) 
nan

>  <Drug Type>  (270) 
1:Synthetic Small Molecule

>  <Passes Rule of Five>  (270) 
True

>  <First In Class>  (270) 
False

>  <Chirality>  (270) 
Single Stereoisomer

>  <Prodrug>  (270) 
False

>  <Oral>  (270) 
False

>  <Parenteral>  (270) 
False

>  <Topical>  (270) 
False

>  <Black Box>  (270) 
False

>  <Availability Type>  (270) 
Unknown

>  <Withdrawn Year>  (270) 
nan

>  <Withdrawn Reason>  (270) 
nan

>  <Withdrawn Country>  (270) 
nan

>  <Withdrawn Class>  (270) 
nan

>  <SMILES>  (270) 
O=C(/C=C/c1c(-c2ccccc2)nn2ccccc12)N1CCCC[C@@H]1CCO

>  <InChi Key>  (270) 
OPLOPFHUHFGKMJ-JXOMPUQVSA-N

$$$$
CHEMBL3545011
     RDKit          2D

 32 36  0  0  0  0  0  0  0  0999 V2000
   -5.6073    4.2609    0.0000 O   0  0  0  0  0  0  0  0  0  0  0  0
   -5.2955    2.7937    0.0000 C   0  0  0  0  0  0  0  0  0  0  0  0
   -6.2992    1.6790    0.0000 C   0  0  0  0  0  0  0  0  0  0  0  0
   -7.7909    1.8358    0.0000 C   0  0  0  0  0  0  0  0  0  0  0  0
   -8.6726    0.6223    0.0000 S   0  0  0  0  0  0  0  0  0  0  0  0
  -10.1644    0.7791    0.0000 C   0  0  0  0  0  0  0  0  0  0  0  0
  -10.7745    2.1494    0.0000 C   0  0  0  0  0  0  0  0  0  0  0  0
  -12.2663    2.3062    0.0000 C   0  0  0  0  0  0  0  0  0  0  0  0
  -13.1480    1.0926    0.0000 C   0  0  0  0  0  0  0  0  0  0  0  0
  -12.5379   -0.2777    0.0000 C   0  0  0  0  0  0  0  0  0  0  0  0
  -11.0461   -0.4345    0.0000 C   0  0  0  0  0  0  0  0  0  0  0  0
  -10.4360   -1.8048    0.0000 F   0  0  0  0  0  0  0  0  0  0  0  0
   -5.5492    0.3800    0.0000 O   0  0  0  0  0  0  0  0  0  0  0  0
   -4.0819    0.6918    0.0000 C   0  0  0  0  0  0  0  0  0  0  0  0
   -2.9672   -0.3119    0.0000 N   0  0  0  0  0  0  0  0  0  0  0  0
   -3.1240   -1.8037    0.0000 C   0  0  0  0  0  0  0  0  0  0  0  0
   -1.7537   -2.4138    0.0000 N   0  0  0  0  0  0  0  0  0  0  0  0
   -0.7500   -1.2990    0.0000 C   0  0  0  0  0  0  0  0  0  0  0  0
    0.7500   -1.2990    0.0000 C   0  0  0  0  0  0  0  0  0  0  0  0
    1.5000   -2.5981    0.0000 N   0  0  0  0  0  0  0  0  0  0  0  0
    3.0000   -2.5981    0.0000 C   0  0  0  0  0  0  0  0  0  0  0  0
    3.8817   -1.3846    0.0000 C   0  0  0  0  0  0  0  0  0  0  0  0
    5.3083   -1.8481    0.0000 C   0  0  0  0  0  0  0  0  0  0  0  0
    5.3083   -3.3481    0.0000 C   0  0  0  0  0  0  0  0  0  0  0  0
    3.8817   -3.8116    0.0000 C   0  0  0  0  0  0  0  0  0  0  0  0
    3.4182   -5.2382    0.0000 O   0  0  0  0  0  0  0  0  0  0  0  0
    1.5000    0.0000    0.0000 N   0  0  0  0  0  0  0  0  0  0  0  0
    0.7500    1.2990    0.0000 C   0  0  0  0  0  0  0  0  0  0  0  0
   -0.7500    1.2990    0.0000 N   0  0  0  0  0  0  0  0  0  0  0  0
   -1.5000    0.0000    0.0000 C   0  0  0  0  0  0  0  0  0  0  0  0
   -3.9251    2.1836    0.0000 C   0  0  0  0  0  0  0  0  0  0  0  0
   -2.6261    2.9336    0.0000 O   0  0  0  0  0  0  0  0  0  0  0  0
  2  1  1  1
  2  3  1  0
  3  4  1  6
  4  5  1  0
  5  6  1  0
  6  7  2  0
  7  8  1  0
  8  9  2  0
  9 10  1  0
 10 11  2  0
 11 12  1  0
  3 13  1  0
 13 14  1  0
 14 15  1  6
 15 16  1  0
 16 17  2  0
 17 18  1  0
 18 19  1  0
 19 20  2  3
 21 20  1  6
 21 22  1  0
 22 23  1  0
 23 24  1  0
 24 25  1  0
 25 26  1  1
 19 27  1  0
 27 28  1  0
 28 29  2  0
 29 30  1  0
 14 31  1  0
 31 32  1  1
 31  2  1  0
 11  6  1  0
 30 15  1  0
 30 18  2  0
 25 21  1  0
M  END
>  <Synonyms>  (271) 
CVT-3619|GS-9667

>  <Research Codes>  (271) 
CVT-3619

>  <Phase>  (271) 
1

>  <Applicants>  (271) 
nan

>  <USAN Stem>  (271) 
nan

>  <USAN Year>  (271) 
nan

>  <USAN Stem Definition>  (271) 
nan

>  <USAN Stem Substem>  (271) 
nan

>  <First Approval>  (271) 
nan

>  <ATC Codes>  (271) 
nan

>  <Level 4 ATC Codes>  (271) 
nan

>  <Level 3 ATC Codes>  (271) 
nan

>  <Level 2 ATC Codes>  (271) 
nan

>  <Level 1 ATC Codes>  (271) 
nan

>  <Indication Class>  (271) 
nan

>  <Patent>  (271) 
nan

>  <Drug Type>  (271) 
7:Natural Product-derived

>  <Passes Rule of Five>  (271) 
True

>  <First In Class>  (271) 
False

>  <Chirality>  (271) 
Single Stereoisomer

>  <Prodrug>  (271) 
False

>  <Oral>  (271) 
False

>  <Parenteral>  (271) 
False

>  <Topical>  (271) 
False

>  <Black Box>  (271) 
False

>  <Availability Type>  (271) 
Unknown

>  <Withdrawn Year>  (271) 
nan

>  <Withdrawn Reason>  (271) 
nan

>  <Withdrawn Country>  (271) 
nan

>  <Withdrawn Class>  (271) 
nan

>  <SMILES>  (271) 
O[C@@H]1[C@@H](CSc2ccccc2F)O[C@@H](n2cnc3c(N[C@@H]4CCC[C@H]4O)ncnc32)[C@@H]1O

>  <InChi Key>  (271) 
IZRXENCTXNMAMI-DIJFLQFKSA-N

$$$$
CHEMBL351706
     RDKit          2D

 34 38  0  0  0  0  0  0  0  0999 V2000
    4.5000    0.0000    0.0000 N   0  0  0  0  0  0  0  0  0  0  0  0
    3.0000    0.0000    0.0000 C   0  0  0  0  0  0  0  0  0  0  0  0
    1.5000    0.0000    0.0000 C   0  0  0  0  0  0  0  0  0  0  0  0
    0.7500   -1.2990    0.0000 C   0  0  0  0  0  0  0  0  0  0  0  0
   -0.7500   -1.2990    0.0000 C   0  0  0  0  0  0  0  0  0  0  0  0
   -1.5000    0.0000    0.0000 C   0  0  0  0  0  0  0  0  0  0  0  0
   -0.7500    1.2990    0.0000 C   0  0  0  0  0  0  0  0  0  0  0  0
    0.7500    1.2990    0.0000 C   0  0  0  0  0  0  0  0  0  0  0  0
   -1.2980    2.6953    0.0000 C   0  0  0  0  0  0  0  0  0  0  0  0
   -2.7314    3.1375    0.0000 N   0  0  0  0  0  0  0  0  0  0  0  0
   -2.9549    4.6207    0.0000 S   0  0  0  0  0  0  0  0  0  0  0  0
   -4.4382    4.3972    0.0000 O   0  0  0  0  0  0  0  0  0  0  0  0
   -1.4717    4.8443    0.0000 O   0  0  0  0  0  0  0  0  0  0  0  0
   -3.1785    6.1040    0.0000 C   0  0  0  0  0  0  0  0  0  0  0  0
   -4.5099    6.7949    0.0000 C   0  0  0  0  0  0  0  0  0  0  0  0
   -4.2641    8.2747    0.0000 C   0  0  0  0  0  0  0  0  0  0  0  0
   -2.7809    8.4982    0.0000 C   0  0  0  0  0  0  0  0  0  0  0  0
   -2.1099    7.1567    0.0000 S   0  0  0  0  0  0  0  0  0  0  0  0
   -3.9707    2.2925    0.0000 C   0  0  0  0  0  0  0  0  0  0  0  0
   -5.2698    3.0425    0.0000 C   0  0  0  0  0  0  0  0  0  0  0  0
   -6.5688    2.2925    0.0000 C   0  0  0  0  0  0  0  0  0  0  0  0
   -6.5688    0.7925    0.0000 C   0  0  0  0  0  0  0  0  0  0  0  0
   -7.8678    0.0425    0.0000 C   0  0  0  0  0  0  0  0  0  0  0  0
   -9.1669    0.7925    0.0000 C   0  0  0  0  0  0  0  0  0  0  0  0
   -9.1669    2.2925    0.0000 C   0  0  0  0  0  0  0  0  0  0  0  0
   -7.8678    3.0425    0.0000 C   0  0  0  0  0  0  0  0  0  0  0  0
   -4.0828    0.7967    0.0000 C   0  0  0  0  0  0  0  0  0  0  0  0
   -2.9832   -0.2236    0.0000 N   0  0  0  0  0  0  0  0  0  0  0  0
   -3.4254   -1.6569    0.0000 C   0  0  0  0  0  0  0  0  0  0  0  0
   -4.8878   -1.9907    0.0000 C   0  0  0  0  0  0  0  0  0  0  0  0
   -5.4773   -3.3700    0.0000 C   0  0  0  0  0  0  0  0  0  0  0  0
   -6.9713   -3.2355    0.0000 N   0  0  0  0  0  0  0  0  0  0  0  0
   -7.3051   -1.7731    0.0000 C   0  0  0  0  0  0  0  0  0  0  0  0
   -6.0174   -1.0038    0.0000 N   0  0  0  0  0  0  0  0  0  0  0  0
  1  2  3  0
  2  3  1  0
  3  4  2  0
  4  5  1  0
  5  6  2  0
  6  7  1  0
  7  8  2  0
  7  9  1  0
  9 10  1  0
 10 11  1  0
 11 12  2  0
 11 13  2  0
 11 14  1  0
 14 15  2  0
 15 16  1  0
 16 17  2  0
 17 18  1  0
 10 19  1  0
 19 20  1  1
 20 21  1  0
 21 22  2  0
 22 23  1  0
 23 24  2  0
 24 25  1  0
 25 26  2  0
 19 27  1  0
 27 28  1  0
 28 29  1  0
 29 30  1  0
 30 31  2  0
 31 32  1  0
 32 33  1  0
 33 34  2  0
  8  3  1  0
 18 14  1  0
 26 21  1  0
 34 30  1  0
 28  6  1  0
M  END
>  <Synonyms>  (272) 
BMS 214662|BMS-214662

>  <Research Codes>  (272) 
BMS-214662

>  <Phase>  (272) 
1

>  <Applicants>  (272) 
nan

>  <USAN Stem>  (272) 
nan

>  <USAN Year>  (272) 
nan

>  <USAN Stem Definition>  (272) 
nan

>  <USAN Stem Substem>  (272) 
nan

>  <First Approval>  (272) 
nan

>  <ATC Codes>  (272) 
nan

>  <Level 4 ATC Codes>  (272) 
nan

>  <Level 3 ATC Codes>  (272) 
nan

>  <Level 2 ATC Codes>  (272) 
nan

>  <Level 1 ATC Codes>  (272) 
nan

>  <Indication Class>  (272) 
nan

>  <Patent>  (272) 
nan

>  <Drug Type>  (272) 
1:Synthetic Small Molecule

>  <Passes Rule of Five>  (272) 
True

>  <First In Class>  (272) 
False

>  <Chirality>  (272) 
Single Stereoisomer

>  <Prodrug>  (272) 
False

>  <Oral>  (272) 
False

>  <Parenteral>  (272) 
False

>  <Topical>  (272) 
False

>  <Black Box>  (272) 
False

>  <Availability Type>  (272) 
Unknown

>  <Withdrawn Year>  (272) 
nan

>  <Withdrawn Reason>  (272) 
nan

>  <Withdrawn Country>  (272) 
nan

>  <Withdrawn Class>  (272) 
nan

>  <SMILES>  (272) 
N#Cc1ccc2c(c1)CN(S(=O)(=O)c1cccs1)[C@H](Cc1ccccc1)CN2Cc1c[nH]cn1

>  <InChi Key>  (272) 
OLCWFLWEHWLBTO-HSZRJFAPSA-N

$$$$
CHEMBL29741
     RDKit          2D

 23 25  0  0  0  0  0  0  0  0999 V2000
    7.5000   -2.5981    0.0000 C   0  0  0  0  0  0  0  0  0  0  0  0
    6.0000   -2.5981    0.0000 N   0  0  0  0  0  0  0  0  0  0  0  0
    5.2500   -3.8971    0.0000 C   0  0  0  0  0  0  0  0  0  0  0  0
    5.2500   -1.2990    0.0000 C   0  0  0  0  0  0  0  0  0  0  0  0
    3.7500   -1.2990    0.0000 C   0  0  0  0  0  0  0  0  0  0  0  0
    3.0000    0.0000    0.0000 O   0  0  0  0  0  0  0  0  0  0  0  0
    1.5000    0.0000    0.0000 C   0  0  0  0  0  0  0  0  0  0  0  0
    0.7500   -1.2990    0.0000 C   0  0  0  0  0  0  0  0  0  0  0  0
   -0.7500   -1.2990    0.0000 C   0  0  0  0  0  0  0  0  0  0  0  0
   -1.5000    0.0000    0.0000 C   0  0  0  0  0  0  0  0  0  0  0  0
   -0.7500    1.2990    0.0000 C   0  0  0  0  0  0  0  0  0  0  0  0
    0.7500    1.2990    0.0000 C   0  0  0  0  0  0  0  0  0  0  0  0
    1.5000    2.5981    0.0000 C   0  0  0  0  0  0  0  0  0  0  0  0
    0.8899    3.9684    0.0000 N   0  0  0  0  0  0  0  0  0  0  0  0
    2.0046    4.9721    0.0000 C   0  0  0  0  0  0  0  0  0  0  0  0
    1.8478    6.4639    0.0000 C   0  0  0  0  0  0  0  0  0  0  0  0
    3.0613    7.3456    0.0000 C   0  0  0  0  0  0  0  0  0  0  0  0
    2.9046    8.8373    0.0000 C   0  0  0  0  0  0  0  0  0  0  0  0
    1.5342    9.4474    0.0000 C   0  0  0  0  0  0  0  0  0  0  0  0
    0.3207    8.5658    0.0000 C   0  0  0  0  0  0  0  0  0  0  0  0
    0.4775    7.0740    0.0000 C   0  0  0  0  0  0  0  0  0  0  0  0
    3.3037    4.2221    0.0000 N   0  0  0  0  0  0  0  0  0  0  0  0
    2.9918    2.7549    0.0000 O   0  0  0  0  0  0  0  0  0  0  0  0
  1  2  1  0
  2  3  1  0
  2  4  1  0
  4  5  1  0
  5  6  1  0
  6  7  1  0
  7  8  2  0
  8  9  1  0
  9 10  2  0
 10 11  1  0
 11 12  2  0
 12 13  1  0
 13 14  2  0
 14 15  1  0
 15 16  1  0
 16 17  2  0
 17 18  1  0
 18 19  2  0
 19 20  1  0
 20 21  2  0
 15 22  2  0
 22 23  1  0
 12  7  1  0
 23 13  1  0
 21 16  1  0
M  END
>  <Synonyms>  (273) 
BIIR 561|BIIR-561|BIIR-561 CL|IRAMPANEL

>  <Research Codes>  (273) 
BIIR 561|BIIR-561|BIIR-561 Cl

>  <Phase>  (273) 
1

>  <Applicants>  (273) 
nan

>  <USAN Stem>  (273) 
'-ampa-'

>  <USAN Year>  (273) 
nan

>  <USAN Stem Definition>  (273) 
ionotropic non-NMDA glutamate receptors (AMPA and/or KA receptors): antagonists

>  <USAN Stem Substem>  (273) 
'-ampa-(-ampa- (-ampanel))'

>  <First Approval>  (273) 
nan

>  <ATC Codes>  (273) 
nan

>  <Level 4 ATC Codes>  (273) 
nan

>  <Level 3 ATC Codes>  (273) 
nan

>  <Level 2 ATC Codes>  (273) 
nan

>  <Level 1 ATC Codes>  (273) 
nan

>  <Indication Class>  (273) 
nan

>  <Patent>  (273) 
nan

>  <Drug Type>  (273) 
1:Synthetic Small Molecule

>  <Passes Rule of Five>  (273) 
True

>  <First In Class>  (273) 
False

>  <Chirality>  (273) 
Achiral Molecule

>  <Prodrug>  (273) 
False

>  <Oral>  (273) 
False

>  <Parenteral>  (273) 
False

>  <Topical>  (273) 
False

>  <Black Box>  (273) 
False

>  <Availability Type>  (273) 
Unknown

>  <Withdrawn Year>  (273) 
nan

>  <Withdrawn Reason>  (273) 
nan

>  <Withdrawn Country>  (273) 
nan

>  <Withdrawn Class>  (273) 
nan

>  <SMILES>  (273) 
CN(C)CCOc1ccccc1-c1nc(-c2ccccc2)no1

>  <InChi Key>  (273) 
QZULPCPLWGCGSL-UHFFFAOYSA-N

$$$$
CHEMBL574738
     RDKit          2D

 38 41  0  0  0  0  0  0  0  0999 V2000
    3.7500   -1.2990    0.0000 C   0  0  0  0  0  0  0  0  0  0  0  0
    3.0000    0.0000    0.0000 C   0  0  0  0  0  0  0  0  0  0  0  0
    1.5000    0.0000    0.0000 N   0  0  0  0  0  0  0  0  0  0  0  0
    0.7500   -1.2990    0.0000 C   0  0  0  0  0  0  0  0  0  0  0  0
   -0.7500   -1.2990    0.0000 C   0  0  0  0  0  0  0  0  0  0  0  0
   -1.5000    0.0000    0.0000 N   0  0  0  0  0  0  0  0  0  0  0  0
   -3.0000    0.0000    0.0000 C   0  0  0  0  0  0  0  0  0  0  0  0
   -3.7500    1.2990    0.0000 C   0  0  0  0  0  0  0  0  0  0  0  0
   -3.0000    2.5981    0.0000 C   0  0  0  0  0  0  0  0  0  0  0  0
   -3.7500    3.8971    0.0000 C   0  0  0  0  0  0  0  0  0  0  0  0
   -5.2500    3.8971    0.0000 C   0  0  0  0  0  0  0  0  0  0  0  0
   -6.0000    5.1962    0.0000 N   0  0  0  0  0  0  0  0  0  0  0  0
   -5.2500    6.4952    0.0000 C   0  0  0  0  0  0  0  0  0  0  0  0
   -3.7500    6.4952    0.0000 O   0  0  0  0  0  0  0  0  0  0  0  0
   -6.0000    7.7942    0.0000 N   0  0  0  0  0  0  0  0  0  0  0  0
   -5.2500    9.0933    0.0000 C   0  0  0  0  0  0  0  0  0  0  0  0
   -3.7500    9.0933    0.0000 C   0  0  0  0  0  0  0  0  0  0  0  0
   -3.0000   10.3923    0.0000 C   0  0  0  0  0  0  0  0  0  0  0  0
   -3.7500   11.6913    0.0000 C   0  0  0  0  0  0  0  0  0  0  0  0
   -3.0000   12.9904    0.0000 O   0  0  0  0  0  0  0  0  0  0  0  0
   -1.5000   12.9904    0.0000 C   0  0  0  0  0  0  0  0  0  0  0  0
   -0.7500   11.6913    0.0000 C   0  0  0  0  0  0  0  0  0  0  0  0
    0.7500   11.6913    0.0000 C   0  0  0  0  0  0  0  0  0  0  0  0
    1.5000   10.3923    0.0000 N   0  0  0  0  0  0  0  0  0  0  0  0
    0.7500    9.0933    0.0000 C   0  0  0  0  0  0  0  0  0  0  0  0
    1.5000   12.9904    0.0000 N   0  0  0  0  0  0  0  0  0  0  0  0
    0.7500   14.2894    0.0000 C   0  0  0  0  0  0  0  0  0  0  0  0
   -0.7500   14.2894    0.0000 N   0  0  0  0  0  0  0  0  0  0  0  0
   -5.2500   11.6913    0.0000 C   0  0  0  0  0  0  0  0  0  0  0  0
   -6.0000   10.3923    0.0000 C   0  0  0  0  0  0  0  0  0  0  0  0
   -6.0000    2.5981    0.0000 C   0  0  0  0  0  0  0  0  0  0  0  0
   -5.2500    1.2990    0.0000 C   0  0  0  0  0  0  0  0  0  0  0  0
   -6.0000    0.0000    0.0000 C   0  0  0  0  0  0  0  0  0  0  0  0
   -6.7500   -1.2990    0.0000 F   0  0  0  0  0  0  0  0  0  0  0  0
   -7.2990    0.7500    0.0000 F   0  0  0  0  0  0  0  0  0  0  0  0
   -4.7010   -0.7500    0.0000 F   0  0  0  0  0  0  0  0  0  0  0  0
   -0.7500    1.2990    0.0000 C   0  0  0  0  0  0  0  0  0  0  0  0
    0.7500    1.2990    0.0000 C   0  0  0  0  0  0  0  0  0  0  0  0
  1  2  1  0
  2  3  1  0
  3  4  1  0
  4  5  1  0
  5  6  1  0
  6  7  1  0
  7  8  1  0
  8  9  2  0
  9 10  1  0
 10 11  2  0
 11 12  1  0
 12 13  1  0
 13 14  2  0
 13 15  1  0
 15 16  1  0
 16 17  2  0
 17 18  1  0
 18 19  2  0
 19 20  1  0
 20 21  1  0
 21 22  2  0
 22 23  1  0
 23 24  2  3
 24 25  1  0
 23 26  1  0
 26 27  1  0
 27 28  2  0
 19 29  1  0
 29 30  2  0
 11 31  1  0
 31 32  2  0
 32 33  1  0
 33 34  1  0
 33 35  1  0
 33 36  1  0
  6 37  1  0
 37 38  1  0
 38  3  1  0
 32  8  1  0
 30 16  1  0
 28 21  1  0
M  END
>  <Synonyms>  (274) 
AST-487|NVP-AST487

>  <Research Codes>  (274) 
AST-487|NVP-AST487

>  <Phase>  (274) 
1

>  <Applicants>  (274) 
nan

>  <USAN Stem>  (274) 
nan

>  <USAN Year>  (274) 
nan

>  <USAN Stem Definition>  (274) 
nan

>  <USAN Stem Substem>  (274) 
nan

>  <First Approval>  (274) 
nan

>  <ATC Codes>  (274) 
nan

>  <Level 4 ATC Codes>  (274) 
nan

>  <Level 3 ATC Codes>  (274) 
nan

>  <Level 2 ATC Codes>  (274) 
nan

>  <Level 1 ATC Codes>  (274) 
nan

>  <Indication Class>  (274) 
nan

>  <Patent>  (274) 
nan

>  <Drug Type>  (274) 
1:Synthetic Small Molecule

>  <Passes Rule of Five>  (274) 
False

>  <First In Class>  (274) 
False

>  <Chirality>  (274) 
Achiral Molecule

>  <Prodrug>  (274) 
False

>  <Oral>  (274) 
False

>  <Parenteral>  (274) 
False

>  <Topical>  (274) 
False

>  <Black Box>  (274) 
False

>  <Availability Type>  (274) 
Unknown

>  <Withdrawn Year>  (274) 
nan

>  <Withdrawn Reason>  (274) 
nan

>  <Withdrawn Country>  (274) 
nan

>  <Withdrawn Class>  (274) 
nan

>  <SMILES>  (274) 
CCN1CCN(Cc2ccc(NC(=O)Nc3ccc(Oc4cc(NC)ncn4)cc3)cc2C(F)(F)F)CC1

>  <InChi Key>  (274) 
ODPGGGTTYSGTGO-UHFFFAOYSA-N

$$$$
CHEMBL2205230
     RDKit          2D

 41 44  0  0  0  0  0  0  0  0999 V2000
    3.7500   -1.2990    0.0000 C   0  0  0  0  0  0  0  0  0  0  0  0
    3.0000    0.0000    0.0000 C   0  0  0  0  0  0  0  0  0  0  0  0
    1.5000    0.0000    0.0000 C   0  0  0  0  0  0  0  0  0  0  0  0
    0.7500   -1.2990    0.0000 C   0  0  0  0  0  0  0  0  0  0  0  0
   -0.7500   -1.2990    0.0000 C   0  0  0  0  0  0  0  0  0  0  0  0
   -1.5000    0.0000    0.0000 C   0  0  0  0  0  0  0  0  0  0  0  0
   -2.9672   -0.3119    0.0000 C   0  0  0  0  0  0  0  0  0  0  0  0
   -4.0819    0.6918    0.0000 O   0  0  0  0  0  0  0  0  0  0  0  0
   -5.5085    0.2283    0.0000 C   0  0  0  0  0  0  0  0  0  0  0  0
   -6.6232    1.2320    0.0000 C   0  0  0  0  0  0  0  0  0  0  0  0
   -7.7380    2.2357    0.0000 F   0  0  0  0  0  0  0  0  0  0  0  0
   -7.6269    0.1173    0.0000 F   0  0  0  0  0  0  0  0  0  0  0  0
   -5.6195    2.3467    0.0000 F   0  0  0  0  0  0  0  0  0  0  0  0
   -3.1240   -1.8037    0.0000 C   0  0  0  0  0  0  0  0  0  0  0  0
   -4.4231   -2.5537    0.0000 C   0  0  0  0  0  0  0  0  0  0  0  0
   -5.7221   -1.8037    0.0000 O   0  0  0  0  0  0  0  0  0  0  0  0
   -4.4231   -4.0537    0.0000 N   0  0  0  0  0  0  0  0  0  0  0  0
   -5.7221   -4.8037    0.0000 C   0  0  0  0  0  0  0  0  0  0  0  0
   -7.0211   -4.0537    0.0000 C   0  0  0  0  0  0  0  0  0  0  0  0
   -8.3202   -4.8037    0.0000 C   0  0  0  0  0  0  0  0  0  0  0  0
   -8.3202   -6.3037    0.0000 N   0  0  0  0  0  0  0  0  0  0  0  0
   -9.6192   -7.0537    0.0000 C   0  0  0  0  0  0  0  0  0  0  0  0
   -9.6192   -8.5537    0.0000 O   0  0  0  0  0  0  0  0  0  0  0  0
  -10.9182   -6.3037    0.0000 C   0  0  0  0  0  0  0  0  0  0  0  0
  -12.2173   -7.0537    0.0000 O   0  0  0  0  0  0  0  0  0  0  0  0
   -7.0211   -7.0537    0.0000 C   0  0  0  0  0  0  0  0  0  0  0  0
   -5.7221   -6.3037    0.0000 C   0  0  0  0  0  0  0  0  0  0  0  0
   -1.7537   -2.4138    0.0000 N   0  0  0  0  0  0  0  0  0  0  0  0
   -1.4418   -3.8810    0.0000 C   0  0  0  0  0  0  0  0  0  0  0  0
   -0.7500    1.2990    0.0000 C   0  0  0  0  0  0  0  0  0  0  0  0
   -1.5000    2.5981    0.0000 O   0  0  0  0  0  0  0  0  0  0  0  0
    0.7500    1.2990    0.0000 N   0  0  0  0  0  0  0  0  0  0  0  0
    1.5000    2.5981    0.0000 C   0  0  0  0  0  0  0  0  0  0  0  0
    3.0000    2.5981    0.0000 C   0  0  0  0  0  0  0  0  0  0  0  0
    3.7500    1.2990    0.0000 O   0  0  0  0  0  0  0  0  0  0  0  0
    3.7500    3.8971    0.0000 C   0  0  0  0  0  0  0  0  0  0  0  0
    5.2500    3.8971    0.0000 C   0  0  0  0  0  0  0  0  0  0  0  0
    6.0000    5.1962    0.0000 C   0  0  0  0  0  0  0  0  0  0  0  0
    5.2500    6.4952    0.0000 C   0  0  0  0  0  0  0  0  0  0  0  0
    3.7500    6.4952    0.0000 C   0  0  0  0  0  0  0  0  0  0  0  0
    3.0000    5.1962    0.0000 C   0  0  0  0  0  0  0  0  0  0  0  0
  1  2  1  0
  2  3  1  0
  3  4  2  0
  4  5  1  0
  5  6  2  0
  6  7  1  0
  7  8  1  0
  8  9  1  0
  9 10  1  0
 10 11  1  0
 10 12  1  0
 10 13  1  0
  7 14  2  0
 14 15  1  0
 15 16  2  0
 15 17  1  0
 17 18  1  0
 18 19  1  0
 19 20  1  0
 20 21  1  0
 21 22  1  0
 22 23  2  0
 22 24  1  0
 24 25  1  0
 21 26  1  0
 26 27  1  0
 14 28  1  0
 28 29  1  0
  6 30  1  0
 30 31  2  0
 30 32  1  0
 32 33  1  0
 33 34  1  0
 34 35  2  0
 34 36  1  0
 36 37  2  0
 37 38  1  0
 38 39  2  0
 39 40  1  0
 40 41  2  0
 32  3  1  0
 41 36  1  0
 28  5  1  0
 27 18  1  0
M  END
>  <Synonyms>  (275) 
TAK-441

>  <Research Codes>  (275) 
nan

>  <Phase>  (275) 
1

>  <Applicants>  (275) 
nan

>  <USAN Stem>  (275) 
nan

>  <USAN Year>  (275) 
nan

>  <USAN Stem Definition>  (275) 
nan

>  <USAN Stem Substem>  (275) 
nan

>  <First Approval>  (275) 
nan

>  <ATC Codes>  (275) 
nan

>  <Level 4 ATC Codes>  (275) 
nan

>  <Level 3 ATC Codes>  (275) 
nan

>  <Level 2 ATC Codes>  (275) 
nan

>  <Level 1 ATC Codes>  (275) 
nan

>  <Indication Class>  (275) 
nan

>  <Patent>  (275) 
nan

>  <Drug Type>  (275) 
1:Synthetic Small Molecule

>  <Passes Rule of Five>  (275) 
False

>  <First In Class>  (275) 
False

>  <Chirality>  (275) 
Achiral Molecule

>  <Prodrug>  (275) 
False

>  <Oral>  (275) 
False

>  <Parenteral>  (275) 
False

>  <Topical>  (275) 
False

>  <Black Box>  (275) 
False

>  <Availability Type>  (275) 
Unknown

>  <Withdrawn Year>  (275) 
nan

>  <Withdrawn Reason>  (275) 
nan

>  <Withdrawn Country>  (275) 
nan

>  <Withdrawn Class>  (275) 
nan

>  <SMILES>  (275) 
CCc1cc2c(c(OCC(F)(F)F)c(C(=O)NC3CCN(C(=O)CO)CC3)n2C)c(=O)n1CC(=O)c1ccccc1

>  <InChi Key>  (275) 
ZADWXQMNNVICKB-UHFFFAOYSA-N

$$$$
CHEMBL590985
     RDKit          2D

 42 45  0  0  0  0  0  0  0  0999 V2000
   -1.5000   -5.1962    0.0000 N   0  0  0  0  0  0  0  0  0  0  0  0
   -0.7500   -3.8971    0.0000 C   0  0  0  0  0  0  0  0  0  0  0  0
    0.7500   -3.8971    0.0000 N   0  0  0  0  0  0  0  0  0  0  0  0
    1.5000   -2.5981    0.0000 C   0  0  0  0  0  0  0  0  0  0  0  0
    3.0000   -2.5981    0.0000 N   0  0  0  0  0  0  0  0  0  0  0  0
    0.7500   -1.2990    0.0000 C   0  0  0  0  0  0  0  0  0  0  0  0
    1.5000    0.0000    0.0000 N   0  0  0  0  0  0  0  0  0  0  0  0
    0.7500    1.2990    0.0000 C   0  0  0  0  0  0  0  0  0  0  0  0
    1.5000    2.5981    0.0000 C   0  0  0  0  0  0  0  0  0  0  0  0
    3.0000    2.5981    0.0000 N   0  0  0  0  0  0  0  0  0  0  0  0
    3.7500    3.8971    0.0000 C   0  0  0  0  0  0  0  0  0  0  0  0
    5.2500    3.8971    0.0000 C   0  0  0  0  0  0  0  0  0  0  0  0
    6.0000    5.1962    0.0000 C   0  0  0  0  0  0  0  0  0  0  0  0
    5.2500    6.4952    0.0000 C   0  0  0  0  0  0  0  0  0  0  0  0
    6.0000    7.7942    0.0000 C   0  0  0  0  0  0  0  0  0  0  0  0
    5.2500    9.0933    0.0000 O   0  0  0  0  0  0  0  0  0  0  0  0
    7.5000    7.7942    0.0000 N   0  0  0  0  0  0  0  0  0  0  0  0
    8.2500    9.0933    0.0000 C   0  0  0  0  0  0  0  0  0  0  0  0
    9.7500    9.0933    0.0000 C   0  0  0  0  0  0  0  0  0  0  0  0
   10.5000   10.3923    0.0000 C   0  0  0  0  0  0  0  0  0  0  0  0
   12.0000   10.3923    0.0000 C   0  0  0  0  0  0  0  0  0  0  0  0
   12.7500   11.6913    0.0000 N   0  0  0  0  0  0  0  0  0  0  0  0
   14.2500   11.6913    0.0000 C   0  0  0  0  0  0  0  0  0  0  0  0
   15.0000   10.3923    0.0000 O   0  0  0  0  0  0  0  0  0  0  0  0
   15.0000   12.9904    0.0000 C   0  0  0  0  0  0  0  0  0  0  0  0
   16.5000   12.9904    0.0000 C   0  0  0  0  0  0  0  0  0  0  0  0
   17.2500   14.2894    0.0000 C   0  0  0  0  0  0  0  0  0  0  0  0
   16.5000   15.5885    0.0000 C   0  0  0  0  0  0  0  0  0  0  0  0
   15.0000   15.5885    0.0000 C   0  0  0  0  0  0  0  0  0  0  0  0
   14.2500   14.2894    0.0000 C   0  0  0  0  0  0  0  0  0  0  0  0
   12.7500   14.2894    0.0000 C   0  0  0  0  0  0  0  0  0  0  0  0
   12.0000   15.5885    0.0000 O   0  0  0  0  0  0  0  0  0  0  0  0
   12.0000   12.9904    0.0000 O   0  0  0  0  0  0  0  0  0  0  0  0
    7.5000   10.3923    0.0000 C   0  0  0  0  0  0  0  0  0  0  0  0
    8.2500   11.6913    0.0000 O   0  0  0  0  0  0  0  0  0  0  0  0
    6.0000   10.3923    0.0000 O   0  0  0  0  0  0  0  0  0  0  0  0
    3.7500    6.4952    0.0000 C   0  0  0  0  0  0  0  0  0  0  0  0
    3.0000    5.1962    0.0000 C   0  0  0  0  0  0  0  0  0  0  0  0
   -0.7500    1.2990    0.0000 C   0  0  0  0  0  0  0  0  0  0  0  0
   -1.5000    0.0000    0.0000 N   0  0  0  0  0  0  0  0  0  0  0  0
   -0.7500   -1.2990    0.0000 C   0  0  0  0  0  0  0  0  0  0  0  0
   -1.5000   -2.5981    0.0000 N   0  0  0  0  0  0  0  0  0  0  0  0
  1  2  2  0
  2  3  1  0
  3  4  1  0
  4  5  2  0
  4  6  1  0
  6  7  2  0
  7  8  1  0
  8  9  1  0
  9 10  1  0
 10 11  1  0
 11 12  2  0
 12 13  1  0
 13 14  2  0
 14 15  1  0
 15 16  2  0
 15 17  1  0
 17 18  1  0
 18 19  1  0
 19 20  1  0
 20 21  1  0
 21 22  1  0
 22 23  1  0
 23 24  2  0
 23 25  1  0
 25 26  2  0
 26 27  1  0
 27 28  2  0
 28 29  1  0
 29 30  2  0
 30 31  1  0
 31 32  2  0
 31 33  1  0
 18 34  1  0
 34 35  2  0
 34 36  1  0
 14 37  1  0
 37 38  2  0
  8 39  2  0
 39 40  1  0
 40 41  2  0
 41 42  1  0
 42  2  1  0
 41  6  1  0
 38 11  1  0
 30 25  1  0
M  END
>  <Synonyms>  (276) 
NSC-623017|TALOTREXIN

>  <Research Codes>  (276) 
NSC-623017

>  <Phase>  (276) 
1

>  <Applicants>  (276) 
nan

>  <USAN Stem>  (276) 
'-onium'

>  <USAN Year>  (276) 
2005.0

>  <USAN Stem Definition>  (276) 
quaternary ammonium derivatives

>  <USAN Stem Substem>  (276) 
'-onium(-onium)'

>  <First Approval>  (276) 
nan

>  <ATC Codes>  (276) 
nan

>  <Level 4 ATC Codes>  (276) 
nan

>  <Level 3 ATC Codes>  (276) 
nan

>  <Level 2 ATC Codes>  (276) 
nan

>  <Level 1 ATC Codes>  (276) 
nan

>  <Indication Class>  (276) 
nan

>  <Patent>  (276) 
nan

>  <Drug Type>  (276) 
7:Natural Product-derived

>  <Passes Rule of Five>  (276) 
False

>  <First In Class>  (276) 
False

>  <Chirality>  (276) 
Single Stereoisomer

>  <Prodrug>  (276) 
False

>  <Oral>  (276) 
False

>  <Parenteral>  (276) 
False

>  <Topical>  (276) 
False

>  <Black Box>  (276) 
False

>  <Availability Type>  (276) 
Unknown

>  <Withdrawn Year>  (276) 
nan

>  <Withdrawn Reason>  (276) 
nan

>  <Withdrawn Country>  (276) 
nan

>  <Withdrawn Class>  (276) 
nan

>  <SMILES>  (276) 
Nc1nc(N)c2nc(CNc3ccc(C(=O)N[C@@H](CCCNC(=O)c4ccccc4C(=O)O)C(=O)O)cc3)cnc2n1

>  <InChi Key>  (276) 
NYQPLPNEESYGNO-UHFFFAOYSA-N

$$$$
CHEMBL3416885
     RDKit          2D

 31 35  0  0  0  0  0  0  0  0999 V2000
   -6.2213   -4.9780    0.0000 C   0  0  0  0  0  0  0  0  0  0  0  0
   -5.0078   -5.8597    0.0000 N   0  0  0  0  0  0  0  0  0  0  0  0
   -5.1646   -7.3514    0.0000 C   0  0  0  0  0  0  0  0  0  0  0  0
   -3.6375   -5.2496    0.0000 C   0  0  0  0  0  0  0  0  0  0  0  0
   -2.4240   -6.1312    0.0000 C   0  0  0  0  0  0  0  0  0  0  0  0
   -1.0537   -5.5211    0.0000 N   0  0  0  0  0  0  0  0  0  0  0  0
   -0.7418   -4.0539    0.0000 C   0  0  0  0  0  0  0  0  0  0  0  0
    0.7500   -3.8971    0.0000 C   0  0  0  0  0  0  0  0  0  0  0  0
    1.5000   -2.5981    0.0000 C   0  0  0  0  0  0  0  0  0  0  0  0
    3.0000   -2.5981    0.0000 O   0  0  0  0  0  0  0  0  0  0  0  0
    0.7500   -1.2990    0.0000 N   0  0  0  0  0  0  0  0  0  0  0  0
    1.5000    0.0000    0.0000 C   0  0  0  0  0  0  0  0  0  0  0  0
    0.7500    1.2990    0.0000 C   0  0  0  0  0  0  0  0  0  0  0  0
   -0.7500    1.2990    0.0000 C   0  0  0  0  0  0  0  0  0  0  0  0
   -1.5000    0.0000    0.0000 C   0  0  0  0  0  0  0  0  0  0  0  0
   -0.7500   -1.2990    0.0000 C   0  0  0  0  0  0  0  0  0  0  0  0
   -2.2418    1.4558    0.0000 O   0  0  0  0  0  0  0  0  0  0  0  0
   -2.5537    2.9231    0.0000 C   0  0  0  0  0  0  0  0  0  0  0  0
   -1.2546    3.6731    0.0000 C   0  0  0  0  0  0  0  0  0  0  0  0
   -0.9427    5.1403    0.0000 C   0  0  0  0  0  0  0  0  0  0  0  0
    0.4838    5.6038    0.0000 C   0  0  0  0  0  0  0  0  0  0  0  0
    1.5986    4.6001    0.0000 C   0  0  0  0  0  0  0  0  0  0  0  0
    1.2867    3.1329    0.0000 C   0  0  0  0  0  0  0  0  0  0  0  0
   -0.1399    2.6694    0.0000 C   0  0  0  0  0  0  0  0  0  0  0  0
    1.3601   -5.2674    0.0000 C   0  0  0  0  0  0  0  0  0  0  0  0
    2.7867   -5.7310    0.0000 C   0  0  0  0  0  0  0  0  0  0  0  0
    3.0986   -7.1982    0.0000 C   0  0  0  0  0  0  0  0  0  0  0  0
    1.9838   -8.2019    0.0000 C   0  0  0  0  0  0  0  0  0  0  0  0
    2.2957   -9.6691    0.0000 Cl  0  0  0  0  0  0  0  0  0  0  0  0
    0.5573   -7.7383    0.0000 C   0  0  0  0  0  0  0  0  0  0  0  0
    0.2454   -6.2711    0.0000 C   0  0  0  0  0  0  0  0  0  0  0  0
  1  2  1  0
  2  3  1  0
  2  4  1  0
  4  5  1  0
  5  6  1  0
  6  7  1  0
  7  8  2  0
  8  9  1  0
  9 10  2  0
  9 11  1  0
 11 12  1  0
 12 13  1  0
 13 14  1  0
 14 15  1  0
 15 16  1  0
 14 17  1  0
 17 18  1  0
 18 19  1  0
 19 20  2  0
 20 21  1  0
 21 22  2  0
 22 23  1  0
 23 24  2  0
  8 25  1  0
 25 26  2  0
 26 27  1  0
 27 28  2  0
 28 29  1  0
 28 30  1  0
 30 31  2  0
 31  6  1  0
 16 11  1  0
 24 19  1  0
 31 25  1  0
 24 14  1  0
M  END
>  <Synonyms>  (277) 
RO-5028442|RO5028442

>  <Research Codes>  (277) 
RO5028442

>  <Phase>  (277) 
1

>  <Applicants>  (277) 
nan

>  <USAN Stem>  (277) 
nan

>  <USAN Year>  (277) 
nan

>  <USAN Stem Definition>  (277) 
nan

>  <USAN Stem Substem>  (277) 
nan

>  <First Approval>  (277) 
nan

>  <ATC Codes>  (277) 
nan

>  <Level 4 ATC Codes>  (277) 
nan

>  <Level 3 ATC Codes>  (277) 
nan

>  <Level 2 ATC Codes>  (277) 
nan

>  <Level 1 ATC Codes>  (277) 
nan

>  <Indication Class>  (277) 
nan

>  <Patent>  (277) 
nan

>  <Drug Type>  (277) 
1:Synthetic Small Molecule

>  <Passes Rule of Five>  (277) 
True

>  <First In Class>  (277) 
False

>  <Chirality>  (277) 
Achiral Molecule

>  <Prodrug>  (277) 
False

>  <Oral>  (277) 
False

>  <Parenteral>  (277) 
False

>  <Topical>  (277) 
False

>  <Black Box>  (277) 
False

>  <Availability Type>  (277) 
Unknown

>  <Withdrawn Year>  (277) 
nan

>  <Withdrawn Reason>  (277) 
nan

>  <Withdrawn Country>  (277) 
nan

>  <Withdrawn Class>  (277) 
nan

>  <SMILES>  (277) 
CN(C)CCn1cc(C(=O)N2CCC3(CC2)OCc2ccccc23)c2ccc(Cl)cc21

>  <InChi Key>  (277) 
QZXVLRCMAHJVIP-UHFFFAOYSA-N

$$$$
CHEMBL429317
     RDKit          2D

 26 28  0  0  0  0  0  0  0  0999 V2000
    0.4022  -10.3610    0.0000 C   0  0  0  0  0  0  0  0  0  0  0  0
    0.2454   -8.8692    0.0000 C   0  0  0  0  0  0  0  0  0  0  0  0
    1.3601   -7.8655    0.0000 C   0  0  0  0  0  0  0  0  0  0  0  0
    0.7500   -6.4952    0.0000 C   0  0  0  0  0  0  0  0  0  0  0  0
    1.5000   -5.1962    0.0000 C   0  0  0  0  0  0  0  0  0  0  0  0
    0.7500   -3.8971    0.0000 C   0  0  0  0  0  0  0  0  0  0  0  0
    1.5000   -2.5981    0.0000 N   0  0  0  0  0  0  0  0  0  0  0  0
    0.7500   -1.2990    0.0000 C   0  0  0  0  0  0  0  0  0  0  0  0
    1.5000    0.0000    0.0000 C   0  0  0  0  0  0  0  0  0  0  0  0
    0.7500    1.2990    0.0000 C   0  0  0  0  0  0  0  0  0  0  0  0
   -0.7500    1.2990    0.0000 C   0  0  0  0  0  0  0  0  0  0  0  0
   -1.5000    2.5981    0.0000 Cl  0  0  0  0  0  0  0  0  0  0  0  0
   -1.5000    0.0000    0.0000 C   0  0  0  0  0  0  0  0  0  0  0  0
   -0.7500   -1.2990    0.0000 C   0  0  0  0  0  0  0  0  0  0  0  0
    3.0000   -5.1962    0.0000 C   0  0  0  0  0  0  0  0  0  0  0  0
    3.7500   -3.8971    0.0000 O   0  0  0  0  0  0  0  0  0  0  0  0
    3.7500   -6.4952    0.0000 N   0  0  0  0  0  0  0  0  0  0  0  0
    5.2500   -6.4952    0.0000 C   0  0  0  0  0  0  0  0  0  0  0  0
    6.0000   -7.7942    0.0000 C   0  0  0  0  0  0  0  0  0  0  0  0
    7.5000   -7.7942    0.0000 C   0  0  0  0  0  0  0  0  0  0  0  0
    8.2500   -6.4952    0.0000 C   0  0  0  0  0  0  0  0  0  0  0  0
    9.7500   -6.4952    0.0000 Cl  0  0  0  0  0  0  0  0  0  0  0  0
    7.5000   -5.1962    0.0000 C   0  0  0  0  0  0  0  0  0  0  0  0
    6.0000   -5.1962    0.0000 C   0  0  0  0  0  0  0  0  0  0  0  0
   -0.7418   -6.6520    0.0000 O   0  0  0  0  0  0  0  0  0  0  0  0
   -1.0537   -8.1192    0.0000 N   0  0  0  0  0  0  0  0  0  0  0  0
  1  2  1  0
  2  3  1  0
  3  4  2  0
  4  5  1  0
  5  6  1  0
  6  7  2  3
  7  8  1  0
  8  9  2  0
  9 10  1  0
 10 11  2  0
 11 12  1  0
 11 13  1  0
 13 14  2  0
  5 15  1  0
 15 16  2  0
 15 17  1  0
 17 18  1  0
 18 19  2  0
 19 20  1  0
 20 21  2  0
 21 22  1  0
 21 23  1  0
 23 24  2  0
  4 25  1  0
 25 26  1  0
 26  2  2  0
 14  8  1  0
 24 18  1  0
M  END
>  <Synonyms>  (278) 
AVL-3288|Anvylic-3288|CCMI|UCI-4083|XY-4083

>  <Research Codes>  (278) 
Anvylic-3288|CCMI|UCI-4083|XY-4083

>  <Phase>  (278) 
1

>  <Applicants>  (278) 
nan

>  <USAN Stem>  (278) 
nan

>  <USAN Year>  (278) 
nan

>  <USAN Stem Definition>  (278) 
nan

>  <USAN Stem Substem>  (278) 
nan

>  <First Approval>  (278) 
nan

>  <ATC Codes>  (278) 
nan

>  <Level 4 ATC Codes>  (278) 
nan

>  <Level 3 ATC Codes>  (278) 
nan

>  <Level 2 ATC Codes>  (278) 
nan

>  <Level 1 ATC Codes>  (278) 
nan

>  <Indication Class>  (278) 
nan

>  <Patent>  (278) 
nan

>  <Drug Type>  (278) 
1:Synthetic Small Molecule

>  <Passes Rule of Five>  (278) 
False

>  <First In Class>  (278) 
False

>  <Chirality>  (278) 
Achiral Molecule

>  <Prodrug>  (278) 
False

>  <Oral>  (278) 
False

>  <Parenteral>  (278) 
False

>  <Topical>  (278) 
False

>  <Black Box>  (278) 
False

>  <Availability Type>  (278) 
Unknown

>  <Withdrawn Year>  (278) 
nan

>  <Withdrawn Reason>  (278) 
nan

>  <Withdrawn Country>  (278) 
nan

>  <Withdrawn Class>  (278) 
nan

>  <SMILES>  (278) 
Cc1cc(/C(=C/Nc2ccc(Cl)cc2)C(=O)Nc2ccc(Cl)cc2)on1

>  <InChi Key>  (278) 
YFDGNBSGIOPFET-UHFFFAOYSA-N

$$$$
CHEMBL4094396
     RDKit          2D

 13 13  0  0  0  0  0  0  0  0999 V2000
    3.7500   -3.8971    0.0000 C   0  0  0  0  0  0  0  0  0  0  0  0
    3.0000   -2.5981    0.0000 N   0  0  0  0  0  0  0  0  0  0  0  0
    3.7500   -1.2990    0.0000 C   0  0  0  0  0  0  0  0  0  0  0  0
    5.2500   -1.2990    0.0000 C   0  0  0  0  0  0  0  0  0  0  0  0
    3.0000    0.0000    0.0000 C   0  0  0  0  0  0  0  0  0  0  0  0
    3.7500    1.2990    0.0000 O   0  0  0  0  0  0  0  0  0  0  0  0
    1.5000    0.0000    0.0000 C   0  0  0  0  0  0  0  0  0  0  0  0
    0.7500   -1.2990    0.0000 C   0  0  0  0  0  0  0  0  0  0  0  0
   -0.7500   -1.2990    0.0000 C   0  0  0  0  0  0  0  0  0  0  0  0
   -1.5000    0.0000    0.0000 C   0  0  0  0  0  0  0  0  0  0  0  0
   -3.0000    0.0000    0.0000 C   0  0  0  0  0  0  0  0  0  0  0  0
   -0.7500    1.2990    0.0000 C   0  0  0  0  0  0  0  0  0  0  0  0
    0.7500    1.2990    0.0000 C   0  0  0  0  0  0  0  0  0  0  0  0
  1  2  1  0
  2  3  1  0
  3  4  1  0
  3  5  1  0
  5  6  2  0
  5  7  1  0
  7  8  2  0
  8  9  1  0
  9 10  2  0
 10 11  1  0
 10 12  1  0
 12 13  2  0
 13  7  1  0
M  END
>  <Synonyms>  (279) 
J2.756.280I|Mephedrone

>  <Research Codes>  (279) 
J2.756.280I

>  <Phase>  (279) 
1

>  <Applicants>  (279) 
nan

>  <USAN Stem>  (279) 
nan

>  <USAN Year>  (279) 
nan

>  <USAN Stem Definition>  (279) 
nan

>  <USAN Stem Substem>  (279) 
nan

>  <First Approval>  (279) 
nan

>  <ATC Codes>  (279) 
nan

>  <Level 4 ATC Codes>  (279) 
nan

>  <Level 3 ATC Codes>  (279) 
nan

>  <Level 2 ATC Codes>  (279) 
nan

>  <Level 1 ATC Codes>  (279) 
nan

>  <Indication Class>  (279) 
nan

>  <Patent>  (279) 
nan

>  <Drug Type>  (279) 
1:Synthetic Small Molecule

>  <Passes Rule of Five>  (279) 
True

>  <First In Class>  (279) 
False

>  <Chirality>  (279) 
Racemic Mixture

>  <Prodrug>  (279) 
False

>  <Oral>  (279) 
False

>  <Parenteral>  (279) 
False

>  <Topical>  (279) 
False

>  <Black Box>  (279) 
False

>  <Availability Type>  (279) 
Unknown

>  <Withdrawn Year>  (279) 
nan

>  <Withdrawn Reason>  (279) 
nan

>  <Withdrawn Country>  (279) 
nan

>  <Withdrawn Class>  (279) 
nan

>  <SMILES>  (279) 
CNC(C)C(=O)c1ccc(C)cc1

>  <InChi Key>  (279) 
YELGFTGWJGBAQU-UHFFFAOYSA-N

$$$$
CHEMBL464792
     RDKit          2D

 24 23  0  0  0  0  0  0  0  0999 V2000
    0.0000   -2.5981    0.0000 C   0  0  0  0  0  0  0  0  0  0  0  0
   -0.7500   -1.2990    0.0000 C   0  0  0  0  0  0  0  0  0  0  0  0
    0.0000    0.0000    0.0000 C   0  0  0  0  0  0  0  0  0  0  0  0
    1.5000    0.0000    0.0000 C   0  0  0  0  0  0  0  0  0  0  0  0
    2.2500    1.2990    0.0000 C   0  0  0  0  0  0  0  0  0  0  0  0
    3.7500    1.2990    0.0000 C   0  0  0  0  0  0  0  0  0  0  0  0
    4.5000    0.0000    0.0000 C   0  0  0  0  0  0  0  0  0  0  0  0
    4.5000    2.5981    0.0000 C   0  0  0  0  0  0  0  0  0  0  0  0
    3.7500    3.8971    0.0000 O   0  0  0  0  0  0  0  0  0  0  0  0
    6.0000    2.5981    0.0000 O   0  0  0  0  0  0  0  0  0  0  0  0
   -2.2500   -1.2990    0.0000 C   0  0  0  0  0  0  0  0  0  0  0  0
   -3.0000   -2.5981    0.0000 C   0  0  0  0  0  0  0  0  0  0  0  0
   -4.5000   -2.5981    0.0000 C   0  0  0  0  0  0  0  0  0  0  0  0
   -5.2500   -3.8971    0.0000 C   0  0  0  0  0  0  0  0  0  0  0  0
   -6.7500   -3.8971    0.0000 C   0  0  0  0  0  0  0  0  0  0  0  0
   -7.5000   -2.5981    0.0000 C   0  0  0  0  0  0  0  0  0  0  0  0
   -7.5000   -5.1962    0.0000 C   0  0  0  0  0  0  0  0  0  0  0  0
   -9.0000   -5.1962    0.0000 C   0  0  0  0  0  0  0  0  0  0  0  0
   -9.7500   -6.4952    0.0000 C   0  0  0  0  0  0  0  0  0  0  0  0
  -11.2500   -6.4952    0.0000 C   0  0  0  0  0  0  0  0  0  0  0  0
  -12.0000   -5.1962    0.0000 C   0  0  0  0  0  0  0  0  0  0  0  0
  -12.0000   -7.7942    0.0000 C   0  0  0  0  0  0  0  0  0  0  0  0
  -11.2500   -9.0933    0.0000 O   0  0  0  0  0  0  0  0  0  0  0  0
  -13.5000   -7.7942    0.0000 O   0  0  0  0  0  0  0  0  0  0  0  0
  1  2  1  0
  2  3  1  0
  3  4  2  0
  4  5  1  0
  5  6  2  0
  6  7  1  0
  6  8  1  0
  8  9  2  0
  8 10  1  0
  2 11  2  0
 11 12  1  0
 12 13  2  0
 13 14  1  0
 14 15  2  0
 15 16  1  0
 15 17  1  0
 17 18  2  0
 18 19  1  0
 19 20  2  0
 20 21  1  0
 20 22  1  0
 22 23  2  0
 22 24  1  0
M  END
>  <Synonyms>  (280) 
CI-75100|CROCETIN|NSC-407300|TRANSCROCETIN

>  <Research Codes>  (280) 
CI-75100|NSC-407300

>  <Phase>  (280) 
1

>  <Applicants>  (280) 
nan

>  <USAN Stem>  (280) 
nan

>  <USAN Year>  (280) 
2013.0

>  <USAN Stem Definition>  (280) 
nan

>  <USAN Stem Substem>  (280) 
nan

>  <First Approval>  (280) 
nan

>  <ATC Codes>  (280) 
nan

>  <Level 4 ATC Codes>  (280) 
nan

>  <Level 3 ATC Codes>  (280) 
nan

>  <Level 2 ATC Codes>  (280) 
nan

>  <Level 1 ATC Codes>  (280) 
nan

>  <Indication Class>  (280) 
nan

>  <Patent>  (280) 
nan

>  <Drug Type>  (280) 
7:Natural Product-derived

>  <Passes Rule of Five>  (280) 
True

>  <First In Class>  (280) 
False

>  <Chirality>  (280) 
Achiral Molecule

>  <Prodrug>  (280) 
False

>  <Oral>  (280) 
False

>  <Parenteral>  (280) 
False

>  <Topical>  (280) 
False

>  <Black Box>  (280) 
False

>  <Availability Type>  (280) 
Unknown

>  <Withdrawn Year>  (280) 
nan

>  <Withdrawn Reason>  (280) 
nan

>  <Withdrawn Country>  (280) 
nan

>  <Withdrawn Class>  (280) 
nan

>  <SMILES>  (280) 
CC(/C=C/C=C(\C)C(=O)O)=C\C=C\C=C(C)\C=C\C=C(/C)C(=O)O

>  <InChi Key>  (280) 
PANKHBYNKQNAHN-MQQNZMFNSA-N

$$$$
CHEMBL146673
     RDKit          2D

 18 20  0  0  0  0  0  0  0  0999 V2000
    3.0000    0.0000    0.0000 C   0  0  0  0  0  0  0  0  0  0  0  0
    1.5000    0.0000    0.0000 C   0  0  0  0  0  0  0  0  0  0  0  0
    0.7500   -1.2990    0.0000 C   0  0  0  0  0  0  0  0  0  0  0  0
   -0.7500   -1.2990    0.0000 N   0  0  0  0  0  0  0  0  0  0  0  0
   -1.5000   -2.5981    0.0000 C   0  0  0  0  0  0  0  0  0  0  0  0
   -2.9918   -2.7549    0.0000 C   0  0  0  0  0  0  0  0  0  0  0  0
   -3.3037   -4.2221    0.0000 C   0  0  0  0  0  0  0  0  0  0  0  0
   -4.6740   -4.8322    0.0000 O   0  0  0  0  0  0  0  0  0  0  0  0
   -2.0046   -4.9721    0.0000 C   0  0  0  0  0  0  0  0  0  0  0  0
   -2.6147   -6.3424    0.0000 C   0  0  0  0  0  0  0  0  0  0  0  0
   -1.7330   -7.5559    0.0000 O   0  0  0  0  0  0  0  0  0  0  0  0
   -0.5780   -5.4356    0.0000 C   0  0  0  0  0  0  0  0  0  0  0  0
   -0.8899   -3.9684    0.0000 C   0  0  0  0  0  0  0  0  0  0  0  0
   -1.5000    0.0000    0.0000 C   0  0  0  0  0  0  0  0  0  0  0  0
   -3.0000    0.0000    0.0000 O   0  0  0  0  0  0  0  0  0  0  0  0
   -0.7500    1.2990    0.0000 N   0  0  0  0  0  0  0  0  0  0  0  0
    0.7500    1.2990    0.0000 C   0  0  0  0  0  0  0  0  0  0  0  0
    1.5000    2.5981    0.0000 O   0  0  0  0  0  0  0  0  0  0  0  0
  1  2  1  0
  2  3  2  0
  3  4  1  0
  5  4  1  6
  5  6  1  0
  6  7  1  0
  7  8  1  1
  7  9  1  0
  9 10  1  6
 10 11  1  0
  9 12  1  0
 13 12  1  1
  4 14  1  0
 14 15  2  0
 14 16  1  0
 16 17  1  0
 17 18  2  0
 17  2  1  0
 13  5  1  0
 13  9  1  0
M  END
>  <Synonyms>  (281) 
(NORTH)-METHANOCARBATHYMIDINE|N-METHANOCARBATHYMIDINE

>  <Research Codes>  (281) 
nan

>  <Phase>  (281) 
1

>  <Applicants>  (281) 
nan

>  <USAN Stem>  (281) 
nan

>  <USAN Year>  (281) 
nan

>  <USAN Stem Definition>  (281) 
nan

>  <USAN Stem Substem>  (281) 
nan

>  <First Approval>  (281) 
nan

>  <ATC Codes>  (281) 
nan

>  <Level 4 ATC Codes>  (281) 
nan

>  <Level 3 ATC Codes>  (281) 
nan

>  <Level 2 ATC Codes>  (281) 
nan

>  <Level 1 ATC Codes>  (281) 
nan

>  <Indication Class>  (281) 
nan

>  <Patent>  (281) 
nan

>  <Drug Type>  (281) 
7:Natural Product-derived

>  <Passes Rule of Five>  (281) 
True

>  <First In Class>  (281) 
False

>  <Chirality>  (281) 
Single Stereoisomer

>  <Prodrug>  (281) 
False

>  <Oral>  (281) 
False

>  <Parenteral>  (281) 
False

>  <Topical>  (281) 
False

>  <Black Box>  (281) 
False

>  <Availability Type>  (281) 
Unknown

>  <Withdrawn Year>  (281) 
nan

>  <Withdrawn Reason>  (281) 
nan

>  <Withdrawn Country>  (281) 
nan

>  <Withdrawn Class>  (281) 
nan

>  <SMILES>  (281) 
Cc1cn([C@H]2C[C@H](O)[C@]3(CO)C[C@H]23)c(=O)[nH]c1=O

>  <InChi Key>  (281) 
NOWRLNPOENZFHP-ARHDFHRDSA-N

$$$$
CHEMBL265948
     RDKit          2D

 19 21  0  0  0  0  0  0  0  0999 V2000
   -2.9499    4.2246    0.0000 N   0  0  0  0  0  0  0  0  0  0  0  0
   -1.8351    3.2209    0.0000 C   0  0  0  0  0  0  0  0  0  0  0  0
   -2.1470    1.7537    0.0000 N   0  0  0  0  0  0  0  0  0  0  0  0
   -1.0323    0.7500    0.0000 C   0  0  0  0  0  0  0  0  0  0  0  0
    0.3943    1.2135    0.0000 C   0  0  0  0  0  0  0  0  0  0  0  0
    1.2760    0.0000    0.0000 N   0  0  0  0  0  0  0  0  0  0  0  0
    0.3943   -1.2135    0.0000 C   0  0  0  0  0  0  0  0  0  0  0  0
   -1.0323   -0.7500    0.0000 N   0  0  0  0  0  0  0  0  0  0  0  0
   -2.2458   -1.6317    0.0000 C   0  0  0  0  0  0  0  0  0  0  0  0
   -2.0890   -3.1235    0.0000 C   0  0  0  0  0  0  0  0  0  0  0  0
   -2.6991   -4.4938    0.0000 C   0  0  0  0  0  0  0  0  0  0  0  0
   -1.2073   -4.3370    0.0000 C   0  0  0  0  0  0  0  0  0  0  0  0
   -0.7939   -5.7789    0.0000 C   0  0  0  0  0  0  0  0  0  0  0  0
    0.6616   -6.1418    0.0000 O   0  0  0  0  0  0  0  0  0  0  0  0
    0.1408   -3.6794    0.0000 C   0  0  0  0  0  0  0  0  0  0  0  0
    1.3844   -4.5182    0.0000 O   0  0  0  0  0  0  0  0  0  0  0  0
    0.7062    2.6807    0.0000 C   0  0  0  0  0  0  0  0  0  0  0  0
    2.1328    3.1443    0.0000 O   0  0  0  0  0  0  0  0  0  0  0  0
   -0.4086    3.6844    0.0000 N   0  0  0  0  0  0  0  0  0  0  0  0
  1  2  2  0
  2  3  1  0
  3  4  1  0
  4  5  2  0
  5  6  1  0
  6  7  2  0
  7  8  1  0
  8  9  1  0
  9 10  2  0
 10 11  1  0
 11 12  1  0
 12 13  1  0
 13 14  1  0
 12 15  1  0
 15 16  1  0
  5 17  1  0
 17 18  2  0
 17 19  1  0
 19  2  1  0
  8  4  1  0
 12 10  1  0
M  END
>  <Synonyms>  (282) 
Cyclopropavir|FILOCICLOVIR|MBX-400|ZSM-162|ZSM-I 62|ZSM-I62

>  <Research Codes>  (282) 
MBX-400|ZSM-162|ZSM-I 62|ZSM-I62

>  <Phase>  (282) 
1

>  <Applicants>  (282) 
nan

>  <USAN Stem>  (282) 
'-vir'

>  <USAN Year>  (282) 
2013.0

>  <USAN Stem Definition>  (282) 
antivirals: antivirals (acyclovir type)

>  <USAN Stem Substem>  (282) 
'-vir(-vir (-ciclovir))'

>  <First Approval>  (282) 
nan

>  <ATC Codes>  (282) 
nan

>  <Level 4 ATC Codes>  (282) 
nan

>  <Level 3 ATC Codes>  (282) 
nan

>  <Level 2 ATC Codes>  (282) 
nan

>  <Level 1 ATC Codes>  (282) 
nan

>  <Indication Class>  (282) 
nan

>  <Patent>  (282) 
nan

>  <Drug Type>  (282) 
7:Natural Product-derived

>  <Passes Rule of Five>  (282) 
True

>  <First In Class>  (282) 
False

>  <Chirality>  (282) 
Achiral Molecule

>  <Prodrug>  (282) 
False

>  <Oral>  (282) 
False

>  <Parenteral>  (282) 
False

>  <Topical>  (282) 
False

>  <Black Box>  (282) 
False

>  <Availability Type>  (282) 
Unknown

>  <Withdrawn Year>  (282) 
nan

>  <Withdrawn Reason>  (282) 
nan

>  <Withdrawn Country>  (282) 
nan

>  <Withdrawn Class>  (282) 
nan

>  <SMILES>  (282) 
Nc1nc2c(ncn2/C=C2/CC2(CO)CO)c(=O)[nH]1

>  <InChi Key>  (282) 
KMUNHOKTIVSFRA-KXFIGUGUSA-N

$$$$
CHEMBL46730
     RDKit          2D

 14 16  0  0  0  0  0  0  0  0999 V2000
    1.5000    0.0000    0.0000 C   0  0  0  0  0  0  0  0  0  0  0  0
    0.7500   -1.2990    0.0000 C   0  0  0  0  0  0  0  0  0  0  0  0
   -0.7500   -1.2990    0.0000 C   0  0  0  0  0  0  0  0  0  0  0  0
   -1.5000    0.0000    0.0000 C   0  0  0  0  0  0  0  0  0  0  0  0
   -0.7500    1.2990    0.0000 C   0  0  0  0  0  0  0  0  0  0  0  0
    0.7500    1.2990    0.0000 C   0  0  0  0  0  0  0  0  0  0  0  0
   -1.5000    2.5981    0.0000 C   0  0  0  0  0  0  0  0  0  0  0  0
   -3.0000    2.5981    0.0000 C   0  0  0  0  0  0  0  0  0  0  0  0
   -3.7500    1.2990    0.0000 C   0  0  0  0  0  0  0  0  0  0  0  0
   -5.2500    1.2990    0.0000 C   0  0  0  0  0  0  0  0  0  0  0  0
   -6.0000   -0.0000    0.0000 C   0  0  0  0  0  0  0  0  0  0  0  0
   -5.2500   -1.2990    0.0000 C   0  0  0  0  0  0  0  0  0  0  0  0
   -3.7500   -1.2990    0.0000 C   0  0  0  0  0  0  0  0  0  0  0  0
   -3.0000    0.0000    0.0000 C   0  0  0  0  0  0  0  0  0  0  0  0
  1  2  2  0
  2  3  1  0
  3  4  2  0
  4  5  1  0
  5  6  2  0
  5  7  1  0
  7  8  2  0
  8  9  1  0
  9 10  2  0
 10 11  1  0
 11 12  2  0
 12 13  1  0
 13 14  2  0
  6  1  1  0
 14  9  1  0
 14  4  1  0
M  END
>  <Synonyms>  (283) 
NSC-26256|PHENANTHRENE

>  <Research Codes>  (283) 
NSC-26256

>  <Phase>  (283) 
1

>  <Applicants>  (283) 
nan

>  <USAN Stem>  (283) 
nan

>  <USAN Year>  (283) 
nan

>  <USAN Stem Definition>  (283) 
nan

>  <USAN Stem Substem>  (283) 
nan

>  <First Approval>  (283) 
nan

>  <ATC Codes>  (283) 
nan

>  <Level 4 ATC Codes>  (283) 
nan

>  <Level 3 ATC Codes>  (283) 
nan

>  <Level 2 ATC Codes>  (283) 
nan

>  <Level 1 ATC Codes>  (283) 
nan

>  <Indication Class>  (283) 
nan

>  <Patent>  (283) 
nan

>  <Drug Type>  (283) 
1:Synthetic Small Molecule

>  <Passes Rule of Five>  (283) 
True

>  <First In Class>  (283) 
False

>  <Chirality>  (283) 
Achiral Molecule

>  <Prodrug>  (283) 
False

>  <Oral>  (283) 
False

>  <Parenteral>  (283) 
False

>  <Topical>  (283) 
False

>  <Black Box>  (283) 
False

>  <Availability Type>  (283) 
Unknown

>  <Withdrawn Year>  (283) 
nan

>  <Withdrawn Reason>  (283) 
nan

>  <Withdrawn Country>  (283) 
nan

>  <Withdrawn Class>  (283) 
nan

>  <SMILES>  (283) 
c1ccc2c(c1)ccc1ccccc12

>  <InChi Key>  (283) 
YNPNZTXNASCQKK-UHFFFAOYSA-N

$$$$
CHEMBL3092562
     RDKit          2D

 30 34  0  0  0  0  0  0  0  0999 V2000
   -4.0819    0.6918    0.0000 C   0  0  0  0  0  0  0  0  0  0  0  0
   -2.9672   -0.3119    0.0000 C   0  0  0  0  0  0  0  0  0  0  0  0
   -3.1240   -1.8037    0.0000 N   0  0  0  0  0  0  0  0  0  0  0  0
   -1.7537   -2.4138    0.0000 C   0  0  0  0  0  0  0  0  0  0  0  0
   -1.4418   -3.8810    0.0000 C   0  0  0  0  0  0  0  0  0  0  0  0
   -0.0715   -4.4911    0.0000 C   0  0  0  0  0  0  0  0  0  0  0  0
   -0.2283   -5.9829    0.0000 N   0  0  0  0  0  0  0  0  0  0  0  0
   -1.6955   -6.2947    0.0000 N   0  0  0  0  0  0  0  0  0  0  0  0
   -2.3056   -7.6651    0.0000 C   0  0  0  0  0  0  0  0  0  0  0  0
   -2.4455   -4.9957    0.0000 C   0  0  0  0  0  0  0  0  0  0  0  0
   -3.9373   -4.8389    0.0000 C   0  0  0  0  0  0  0  0  0  0  0  0
   -4.5474   -3.4686    0.0000 C   0  0  0  0  0  0  0  0  0  0  0  0
   -6.0392   -3.3118    0.0000 C   0  0  0  0  0  0  0  0  0  0  0  0
   -6.9209   -4.5253    0.0000 C   0  0  0  0  0  0  0  0  0  0  0  0
   -8.4127   -4.3685    0.0000 C   0  0  0  0  0  0  0  0  0  0  0  0
   -9.9044   -4.2117    0.0000 F   0  0  0  0  0  0  0  0  0  0  0  0
   -8.2559   -2.8767    0.0000 F   0  0  0  0  0  0  0  0  0  0  0  0
   -8.5694   -5.8603    0.0000 F   0  0  0  0  0  0  0  0  0  0  0  0
   -6.3108   -5.8956    0.0000 C   0  0  0  0  0  0  0  0  0  0  0  0
   -4.8190   -6.0524    0.0000 N   0  0  0  0  0  0  0  0  0  0  0  0
   -0.7500   -1.2990    0.0000 C   0  0  0  0  0  0  0  0  0  0  0  0
    0.7500   -1.2990    0.0000 C   0  0  0  0  0  0  0  0  0  0  0  0
    1.5000   -2.5981    0.0000 N   0  0  0  0  0  0  0  0  0  0  0  0
    1.1118   -4.0470    0.0000 C   0  0  0  0  0  0  0  0  0  0  0  0
    2.5607   -4.4352    0.0000 C   0  0  0  0  0  0  0  0  0  0  0  0
    2.9489   -2.9863    0.0000 C   0  0  0  0  0  0  0  0  0  0  0  0
    1.5000    0.0000    0.0000 N   0  0  0  0  0  0  0  0  0  0  0  0
    0.7500    1.2990    0.0000 C   0  0  0  0  0  0  0  0  0  0  0  0
   -0.7500    1.2990    0.0000 N   0  0  0  0  0  0  0  0  0  0  0  0
   -1.5000    0.0000    0.0000 N   0  0  0  0  0  0  0  0  0  0  0  0
  1  2  1  0
  2  3  2  0
  3  4  1  0
  4  5  1  0
  5  6  1  0
  6  7  2  0
  7  8  1  0
  8  9  1  0
  8 10  1  0
 10 11  1  0
 11 12  2  0
 12 13  1  0
 13 14  2  0
 14 15  1  0
 15 16  1  0
 15 17  1  0
 15 18  1  0
 14 19  1  0
 19 20  2  0
  4 21  2  0
 21 22  1  0
 22 23  1  0
 23 24  1  0
 24 25  1  0
 25 26  1  0
 22 27  2  0
 27 28  1  0
 28 29  2  0
 29 30  1  0
 30  2  1  0
 10  5  2  0
 20 11  1  0
 30 21  1  0
 26 23  1  0
M  END
>  <Synonyms>  (284) 
PF-05180999|PF-999

>  <Research Codes>  (284) 
PF-05180999|PF-999

>  <Phase>  (284) 
1

>  <Applicants>  (284) 
nan

>  <USAN Stem>  (284) 
nan

>  <USAN Year>  (284) 
nan

>  <USAN Stem Definition>  (284) 
nan

>  <USAN Stem Substem>  (284) 
nan

>  <First Approval>  (284) 
nan

>  <ATC Codes>  (284) 
nan

>  <Level 4 ATC Codes>  (284) 
nan

>  <Level 3 ATC Codes>  (284) 
nan

>  <Level 2 ATC Codes>  (284) 
nan

>  <Level 1 ATC Codes>  (284) 
nan

>  <Indication Class>  (284) 
nan

>  <Patent>  (284) 
nan

>  <Drug Type>  (284) 
1:Synthetic Small Molecule

>  <Passes Rule of Five>  (284) 
True

>  <First In Class>  (284) 
False

>  <Chirality>  (284) 
Achiral Molecule

>  <Prodrug>  (284) 
False

>  <Oral>  (284) 
False

>  <Parenteral>  (284) 
False

>  <Topical>  (284) 
False

>  <Black Box>  (284) 
False

>  <Availability Type>  (284) 
Unknown

>  <Withdrawn Year>  (284) 
nan

>  <Withdrawn Reason>  (284) 
nan

>  <Withdrawn Country>  (284) 
nan

>  <Withdrawn Class>  (284) 
nan

>  <SMILES>  (284) 
Cc1nc(-c2cnn(C)c2-c2ccc(C(F)(F)F)cn2)c2c(N3CCC3)ncnn12

>  <InChi Key>  (284) 
CLGCHUKGBICQTE-UHFFFAOYSA-N

$$$$
CHEMBL16503
     RDKit          2D

 20 20  0  0  0  0  0  0  0  0999 V2000
   14.2500   -6.4952    0.0000 O   0  0  0  0  0  0  0  0  0  0  0  0
   12.7500   -6.4952    0.0000 C   0  0  0  0  0  0  0  0  0  0  0  0
   12.0000   -7.7942    0.0000 O   0  0  0  0  0  0  0  0  0  0  0  0
   12.0000   -5.1962    0.0000 C   0  0  0  0  0  0  0  0  0  0  0  0
   10.5000   -5.1962    0.0000 C   0  0  0  0  0  0  0  0  0  0  0  0
    9.7500   -3.8971    0.0000 C   0  0  0  0  0  0  0  0  0  0  0  0
    8.2500   -3.8971    0.0000 C   0  0  0  0  0  0  0  0  0  0  0  0
    7.5000   -2.5981    0.0000 C   0  0  0  0  0  0  0  0  0  0  0  0
    6.0000   -2.5981    0.0000 C   0  0  0  0  0  0  0  0  0  0  0  0
    5.2500   -1.2990    0.0000 C   0  0  0  0  0  0  0  0  0  0  0  0
    3.7500   -1.2990    0.0000 N   0  0  0  0  0  0  0  0  0  0  0  0
    3.0000    0.0000    0.0000 C   0  0  0  0  0  0  0  0  0  0  0  0
    3.7500    1.2990    0.0000 O   0  0  0  0  0  0  0  0  0  0  0  0
    1.5000    0.0000    0.0000 C   0  0  0  0  0  0  0  0  0  0  0  0
    0.7500   -1.2990    0.0000 C   0  0  0  0  0  0  0  0  0  0  0  0
   -0.7500   -1.2990    0.0000 C   0  0  0  0  0  0  0  0  0  0  0  0
   -1.5000    0.0000    0.0000 C   0  0  0  0  0  0  0  0  0  0  0  0
   -0.7500    1.2990    0.0000 C   0  0  0  0  0  0  0  0  0  0  0  0
    0.7500    1.2990    0.0000 C   0  0  0  0  0  0  0  0  0  0  0  0
    1.5000    2.5981    0.0000 O   0  0  0  0  0  0  0  0  0  0  0  0
  1  2  2  0
  2  3  1  0
  2  4  1  0
  4  5  1  0
  5  6  1  0
  6  7  1  0
  7  8  1  0
  8  9  1  0
  9 10  1  0
 10 11  1  0
 11 12  1  0
 12 13  2  0
 12 14  1  0
 14 15  2  0
 15 16  1  0
 16 17  2  0
 17 18  1  0
 18 19  2  0
 19 20  1  0
 19 14  1  0
M  END
>  <Synonyms>  (285) 
SALCAPROZIC ACID

>  <Research Codes>  (285) 
nan

>  <Phase>  (285) 
1

>  <Applicants>  (285) 
nan

>  <USAN Stem>  (285) 
'sal-'

>  <USAN Year>  (285) 
2002.0

>  <USAN Stem Definition>  (285) 
anti-inflammatory agents (salicylic acid derivatives)

>  <USAN Stem Substem>  (285) 
'sal-(sal-)'

>  <First Approval>  (285) 
nan

>  <ATC Codes>  (285) 
nan

>  <Level 4 ATC Codes>  (285) 
nan

>  <Level 3 ATC Codes>  (285) 
nan

>  <Level 2 ATC Codes>  (285) 
nan

>  <Level 1 ATC Codes>  (285) 
nan

>  <Indication Class>  (285) 
nan

>  <Patent>  (285) 
nan

>  <Drug Type>  (285) 
1:Synthetic Small Molecule

>  <Passes Rule of Five>  (285) 
True

>  <First In Class>  (285) 
False

>  <Chirality>  (285) 
Achiral Molecule

>  <Prodrug>  (285) 
False

>  <Oral>  (285) 
False

>  <Parenteral>  (285) 
False

>  <Topical>  (285) 
False

>  <Black Box>  (285) 
False

>  <Availability Type>  (285) 
Unknown

>  <Withdrawn Year>  (285) 
nan

>  <Withdrawn Reason>  (285) 
nan

>  <Withdrawn Country>  (285) 
nan

>  <Withdrawn Class>  (285) 
nan

>  <SMILES>  (285) 
O=C(O)CCCCCCCNC(=O)c1ccccc1O

>  <InChi Key>  (285) 
NJEKDCUDSORUJA-UHFFFAOYSA-N

$$$$
CHEMBL483465
     RDKit          2D

 30 35  0  0  0  0  0  0  0  0999 V2000
    0.8050    6.0661    0.0000 C   0  0  0  0  0  0  0  0  0  0  0  0
   -0.4086    5.1844    0.0000 N   0  0  0  0  0  0  0  0  0  0  0  0
   -1.8351    5.6480    0.0000 C   0  0  0  0  0  0  0  0  0  0  0  0
   -2.7168    4.4344    0.0000 C   0  0  0  0  0  0  0  0  0  0  0  0
   -4.2168    4.4344    0.0000 C   0  0  0  0  0  0  0  0  0  0  0  0
   -5.0985    3.2209    0.0000 C   0  0  0  0  0  0  0  0  0  0  0  0
   -4.6350    1.7943    0.0000 C   0  0  0  0  0  0  0  0  0  0  0  0
   -3.2084    1.3308    0.0000 C   0  0  0  0  0  0  0  0  0  0  0  0
   -3.2084   -0.1692    0.0000 O   0  0  0  0  0  0  0  0  0  0  0  0
   -4.6350   -0.6327    0.0000 C   0  0  0  0  0  0  0  0  0  0  0  0
   -5.2451   -2.0030    0.0000 C   0  0  0  0  0  0  0  0  0  0  0  0
   -6.7369   -2.1598    0.0000 C   0  0  0  0  0  0  0  0  0  0  0  0
   -7.6185   -0.9463    0.0000 C   0  0  0  0  0  0  0  0  0  0  0  0
   -9.1103   -1.1031    0.0000 F   0  0  0  0  0  0  0  0  0  0  0  0
   -7.0084    0.4240    0.0000 C   0  0  0  0  0  0  0  0  0  0  0  0
   -5.5166    0.5808    0.0000 C   0  0  0  0  0  0  0  0  0  0  0  0
   -6.5251    3.6844    0.0000 C   0  0  0  0  0  0  0  0  0  0  0  0
   -7.7386    2.8028    0.0000 O   0  0  0  0  0  0  0  0  0  0  0  0
   -6.5251    5.1844    0.0000 N   0  0  0  0  0  0  0  0  0  0  0  0
   -5.0985    5.6480    0.0000 C   0  0  0  0  0  0  0  0  0  0  0  0
   -4.6350    7.0746    0.0000 O   0  0  0  0  0  0  0  0  0  0  0  0
   -1.8351    3.2209    0.0000 C   0  0  0  0  0  0  0  0  0  0  0  0
   -2.1470    1.7537    0.0000 C   0  0  0  0  0  0  0  0  0  0  0  0
   -1.0323    0.7500    0.0000 C   0  0  0  0  0  0  0  0  0  0  0  0
    0.3943    1.2135    0.0000 C   0  0  0  0  0  0  0  0  0  0  0  0
    0.7062    2.6807    0.0000 C   0  0  0  0  0  0  0  0  0  0  0  0
   -0.4086    3.6844    0.0000 C   0  0  0  0  0  0  0  0  0  0  0  0
    1.2760    0.0000    0.0000 O   0  0  0  0  0  0  0  0  0  0  0  0
    0.3943   -1.2135    0.0000 C   0  0  0  0  0  0  0  0  0  0  0  0
   -1.0323   -0.7500    0.0000 O   0  0  0  0  0  0  0  0  0  0  0  0
  1  2  1  0
  2  3  1  0
  3  4  2  0
  4  5  1  0
  5  6  2  0
  6  7  1  0
  7  8  2  0
  8  9  1  0
  9 10  1  0
 10 11  2  0
 11 12  1  0
 12 13  2  0
 13 14  1  0
 13 15  1  0
 15 16  2  0
  6 17  1  0
 17 18  2  0
 17 19  1  0
 19 20  1  0
 20 21  2  0
  4 22  1  0
 22 23  2  0
 23 24  1  0
 24 25  2  0
 25 26  1  0
 26 27  2  0
 25 28  1  0
 28 29  1  0
 29 30  1  0
 27  2  1  0
 20  5  1  0
 27 22  1  0
 16  7  1  0
 30 24  1  0
 16 10  1  0
M  END
>  <Synonyms>  (286) 
9-ING-41

>  <Research Codes>  (286) 
nan

>  <Phase>  (286) 
1

>  <Applicants>  (286) 
nan

>  <USAN Stem>  (286) 
nan

>  <USAN Year>  (286) 
nan

>  <USAN Stem Definition>  (286) 
nan

>  <USAN Stem Substem>  (286) 
nan

>  <First Approval>  (286) 
nan

>  <ATC Codes>  (286) 
nan

>  <Level 4 ATC Codes>  (286) 
nan

>  <Level 3 ATC Codes>  (286) 
nan

>  <Level 2 ATC Codes>  (286) 
nan

>  <Level 1 ATC Codes>  (286) 
nan

>  <Indication Class>  (286) 
nan

>  <Patent>  (286) 
nan

>  <Drug Type>  (286) 
1:Synthetic Small Molecule

>  <Passes Rule of Five>  (286) 
True

>  <First In Class>  (286) 
False

>  <Chirality>  (286) 
Achiral Molecule

>  <Prodrug>  (286) 
False

>  <Oral>  (286) 
False

>  <Parenteral>  (286) 
False

>  <Topical>  (286) 
False

>  <Black Box>  (286) 
False

>  <Availability Type>  (286) 
Unknown

>  <Withdrawn Year>  (286) 
nan

>  <Withdrawn Reason>  (286) 
nan

>  <Withdrawn Country>  (286) 
nan

>  <Withdrawn Class>  (286) 
nan

>  <SMILES>  (286) 
Cn1cc(C2=C(c3coc4ccc(F)cc34)C(=O)NC2=O)c2cc3c(cc21)OCO3

>  <InChi Key>  (286) 
FARXPFGGGGLENU-UHFFFAOYSA-N

$$$$
CHEMBL195923
     RDKit          2D

 12 12  0  0  0  0  0  0  0  0999 V2000
    3.7500   -1.2990    0.0000 O   0  0  0  0  0  0  0  0  0  0  0  0
    3.0000    0.0000    0.0000 C   0  0  0  0  0  0  0  0  0  0  0  0
    1.5000    0.0000    0.0000 C   0  0  0  0  0  0  0  0  0  0  0  0
    0.7500   -1.2990    0.0000 O   0  0  0  0  0  0  0  0  0  0  0  0
   -0.7500   -1.2990    0.0000 C   0  0  0  0  0  0  0  0  0  0  0  0
   -1.5000   -2.5981    0.0000 O   0  0  0  0  0  0  0  0  0  0  0  0
   -1.5000    0.0000    0.0000 C   0  0  0  0  0  0  0  0  0  0  0  0
   -3.0000    0.0000    0.0000 O   0  0  0  0  0  0  0  0  0  0  0  0
   -0.7500    1.2990    0.0000 C   0  0  0  0  0  0  0  0  0  0  0  0
   -1.5000    2.5981    0.0000 O   0  0  0  0  0  0  0  0  0  0  0  0
    0.7500    1.2990    0.0000 C   0  0  0  0  0  0  0  0  0  0  0  0
    1.5000    2.5981    0.0000 O   0  0  0  0  0  0  0  0  0  0  0  0
  1  2  1  0
  3  2  1  1
  3  4  1  0
  4  5  1  0
  5  6  1  0
  5  7  1  0
  7  8  1  6
  7  9  1  0
  9 10  1  1
  9 11  1  0
 11 12  1  1
 11  3  1  0
M  END
>  <Synonyms>  (287) 
D-GALACTOSE|GALACTOSE|NSC-8102

>  <Research Codes>  (287) 
NSC-8102

>  <Phase>  (287) 
1

>  <Applicants>  (287) 
nan

>  <USAN Stem>  (287) 
nan

>  <USAN Year>  (287) 
nan

>  <USAN Stem Definition>  (287) 
nan

>  <USAN Stem Substem>  (287) 
nan

>  <First Approval>  (287) 
nan

>  <ATC Codes>  (287) 
nan

>  <Level 4 ATC Codes>  (287) 
nan

>  <Level 3 ATC Codes>  (287) 
nan

>  <Level 2 ATC Codes>  (287) 
nan

>  <Level 1 ATC Codes>  (287) 
nan

>  <Indication Class>  (287) 
nan

>  <Patent>  (287) 
nan

>  <Drug Type>  (287) 
7:Natural Product-derived

>  <Passes Rule of Five>  (287) 
True

>  <First In Class>  (287) 
False

>  <Chirality>  (287) 
Single Stereoisomer

>  <Prodrug>  (287) 
False

>  <Oral>  (287) 
False

>  <Parenteral>  (287) 
False

>  <Topical>  (287) 
False

>  <Black Box>  (287) 
False

>  <Availability Type>  (287) 
Unknown

>  <Withdrawn Year>  (287) 
nan

>  <Withdrawn Reason>  (287) 
nan

>  <Withdrawn Country>  (287) 
nan

>  <Withdrawn Class>  (287) 
nan

>  <SMILES>  (287) 
OC[C@H]1OC(O)[C@H](O)[C@@H](O)[C@H]1O

>  <InChi Key>  (287) 
WQZGKKKJIJFFOK-SVZMEOIVSA-N

$$$$
CHEMBL1269258
     RDKit          2D

 45 51  0  0  0  0  0  0  0  0999 V2000
   -7.5348   -1.1367    0.0000 C   0  0  0  0  0  0  0  0  0  0  0  0
   -6.0724   -1.4704    0.0000 C   0  0  0  0  0  0  0  0  0  0  0  0
   -5.6303   -2.9038    0.0000 C   0  0  0  0  0  0  0  0  0  0  0  0
   -5.0522   -0.3709    0.0000 N   0  0  0  0  0  0  0  0  0  0  0  0
   -5.4943    1.0625    0.0000 C   0  0  0  0  0  0  0  0  0  0  0  0
   -6.9567    1.3963    0.0000 C   0  0  0  0  0  0  0  0  0  0  0  0
   -7.3988    2.8296    0.0000 C   0  0  0  0  0  0  0  0  0  0  0  0
   -8.8612    3.1634    0.0000 C   0  0  0  0  0  0  0  0  0  0  0  0
   -9.8815    2.0638    0.0000 C   0  0  0  0  0  0  0  0  0  0  0  0
   -9.4393    0.6305    0.0000 C   0  0  0  0  0  0  0  0  0  0  0  0
   -7.9769    0.2967    0.0000 C   0  0  0  0  0  0  0  0  0  0  0  0
   -3.5898   -0.7046    0.0000 C   0  0  0  0  0  0  0  0  0  0  0  0
   -2.5695    0.3949    0.0000 O   0  0  0  0  0  0  0  0  0  0  0  0
   -3.1476   -2.1380    0.0000 C   0  0  0  0  0  0  0  0  0  0  0  0
   -1.6852   -2.4718    0.0000 N   0  0  0  0  0  0  0  0  0  0  0  0
   -1.3515   -3.9342    0.0000 C   0  0  0  0  0  0  0  0  0  0  0  0
   -2.5242   -4.8694    0.0000 O   0  0  0  0  0  0  0  0  0  0  0  0
    0.0000   -4.5850    0.0000 C   0  0  0  0  0  0  0  0  0  0  0  0
    0.0000   -6.0850    0.0000 C   0  0  0  0  0  0  0  0  0  0  0  0
   -1.2990   -6.8350    0.0000 C   0  0  0  0  0  0  0  0  0  0  0  0
   -2.6694   -6.2249    0.0000 C   0  0  0  0  0  0  0  0  0  0  0  0
   -3.6731   -7.3396    0.0000 N   0  0  0  0  0  0  0  0  0  0  0  0
   -2.9231   -8.6387    0.0000 C   0  0  0  0  0  0  0  0  0  0  0  0
   -3.3866  -10.0652    0.0000 C   0  0  0  0  0  0  0  0  0  0  0  0
   -2.3829  -11.1800    0.0000 C   0  0  0  0  0  0  0  0  0  0  0  0
   -0.9157  -10.8681    0.0000 C   0  0  0  0  0  0  0  0  0  0  0  0
   -0.4521   -9.4415    0.0000 C   0  0  0  0  0  0  0  0  0  0  0  0
   -1.4558   -8.3268    0.0000 C   0  0  0  0  0  0  0  0  0  0  0  0
    1.3515   -3.9342    0.0000 C   0  0  0  0  0  0  0  0  0  0  0  0
    2.6391   -4.7035    0.0000 N   0  0  0  0  0  0  0  0  0  0  0  0
    3.7687   -3.7166    0.0000 N   0  0  0  0  0  0  0  0  0  0  0  0
    3.1792   -2.3373    0.0000 C   0  0  0  0  0  0  0  0  0  0  0  0
    3.9485   -1.0497    0.0000 C   0  0  0  0  0  0  0  0  0  0  0  0
    5.4484   -1.0721    0.0000 C   0  0  0  0  0  0  0  0  0  0  0  0
    6.2177    0.2156    0.0000 C   0  0  0  0  0  0  0  0  0  0  0  0
    5.4872    1.5257    0.0000 C   0  0  0  0  0  0  0  0  0  0  0  0
    3.9874    1.5481    0.0000 C   0  0  0  0  0  0  0  0  0  0  0  0
    3.2181    0.2605    0.0000 C   0  0  0  0  0  0  0  0  0  0  0  0
    1.6852   -2.4718    0.0000 N   0  0  0  0  0  0  0  0  0  0  0  0
    0.7500   -1.2990    0.0000 C   0  0  0  0  0  0  0  0  0  0  0  0
    1.5000    0.0000    0.0000 C   0  0  0  0  0  0  0  0  0  0  0  0
    0.7500    1.2990    0.0000 C   0  0  0  0  0  0  0  0  0  0  0  0
   -0.7500    1.2990    0.0000 C   0  0  0  0  0  0  0  0  0  0  0  0
   -1.5000    0.0000    0.0000 C   0  0  0  0  0  0  0  0  0  0  0  0
   -0.7500   -1.2990    0.0000 C   0  0  0  0  0  0  0  0  0  0  0  0
  1  2  1  0
  2  3  1  0
  2  4  1  0
  4  5  1  0
  5  6  1  0
  6  7  2  0
  7  8  1  0
  8  9  2  0
  9 10  1  0
 10 11  2  0
  4 12  1  0
 12 13  2  0
 12 14  1  0
 14 15  1  0
 15 16  1  0
 16 17  2  0
 16 18  1  0
 18 19  1  0
 19 20  1  0
 20 21  2  0
 21 22  1  0
 22 23  1  0
 23 24  2  0
 24 25  1  0
 25 26  2  0
 26 27  1  0
 27 28  2  0
 18 29  1  0
 29 30  2  0
 30 31  1  0
 31 32  2  0
 32 33  1  0
 33 34  2  0
 34 35  1  0
 35 36  2  0
 36 37  1  0
 37 38  2  0
 32 39  1  0
 39 40  1  0
 40 41  2  0
 41 42  1  0
 42 43  2  0
 43 44  1  0
 44 45  2  0
 11  6  1  0
 45 15  1  0
 28 20  1  0
 39 29  1  0
 45 40  1  0
 28 23  1  0
 38 33  1  0
M  END
>  <Synonyms>  (288) 
CE-326,597|CE-326597

>  <Research Codes>  (288) 
CE-326,597

>  <Phase>  (288) 
1

>  <Applicants>  (288) 
nan

>  <USAN Stem>  (288) 
nan

>  <USAN Year>  (288) 
nan

>  <USAN Stem Definition>  (288) 
nan

>  <USAN Stem Substem>  (288) 
nan

>  <First Approval>  (288) 
nan

>  <ATC Codes>  (288) 
nan

>  <Level 4 ATC Codes>  (288) 
nan

>  <Level 3 ATC Codes>  (288) 
nan

>  <Level 2 ATC Codes>  (288) 
nan

>  <Level 1 ATC Codes>  (288) 
nan

>  <Indication Class>  (288) 
nan

>  <Patent>  (288) 
nan

>  <Drug Type>  (288) 
1:Synthetic Small Molecule

>  <Passes Rule of Five>  (288) 
False

>  <First In Class>  (288) 
False

>  <Chirality>  (288) 
Single Stereoisomer

>  <Prodrug>  (288) 
False

>  <Oral>  (288) 
False

>  <Parenteral>  (288) 
False

>  <Topical>  (288) 
False

>  <Black Box>  (288) 
False

>  <Availability Type>  (288) 
Unknown

>  <Withdrawn Year>  (288) 
nan

>  <Withdrawn Reason>  (288) 
nan

>  <Withdrawn Country>  (288) 
nan

>  <Withdrawn Class>  (288) 
nan

>  <SMILES>  (288) 
CC(C)N(Cc1ccccc1)C(=O)CN1C(=O)[C@@H](Cc2c[nH]c3ccccc23)c2nnc(-c3ccccc3)n2-c2ccccc21

>  <InChi Key>  (288) 
UBNMGTSDHSQBEL-UHFFFAOYSA-N

$$$$
CHEMBL1090173
     RDKit          2D

 28 31  0  0  0  0  0  0  0  0999 V2000
    3.7500    1.2990    0.0000 O   0  0  0  0  0  0  0  0  0  0  0  0
    3.0000    0.0000    0.0000 C   0  0  0  0  0  0  0  0  0  0  0  0
    3.7500   -1.2990    0.0000 C   0  0  0  0  0  0  0  0  0  0  0  0
    5.2500   -1.2990    0.0000 O   0  0  0  0  0  0  0  0  0  0  0  0
    1.5000    0.0000    0.0000 N   0  0  0  0  0  0  0  0  0  0  0  0
    0.7500   -1.2990    0.0000 C   0  0  0  0  0  0  0  0  0  0  0  0
   -0.7500   -1.2990    0.0000 C   0  0  0  0  0  0  0  0  0  0  0  0
   -1.5000    0.0000    0.0000 C   0  0  0  0  0  0  0  0  0  0  0  0
   -3.0000    0.0000    0.0000 C   0  0  0  0  0  0  0  0  0  0  0  0
   -3.8817   -1.2135    0.0000 N   0  0  0  0  0  0  0  0  0  0  0  0
   -5.3083   -0.7500    0.0000 N   0  0  0  0  0  0  0  0  0  0  0  0
   -5.3083    0.7500    0.0000 C   0  0  0  0  0  0  0  0  0  0  0  0
   -6.5218    1.6317    0.0000 C   0  0  0  0  0  0  0  0  0  0  0  0
   -6.3650    3.1235    0.0000 C   0  0  0  0  0  0  0  0  0  0  0  0
   -7.5785    4.0051    0.0000 C   0  0  0  0  0  0  0  0  0  0  0  0
   -8.9488    3.3950    0.0000 C   0  0  0  0  0  0  0  0  0  0  0  0
  -10.1624    4.2767    0.0000 Cl  0  0  0  0  0  0  0  0  0  0  0  0
   -9.1056    1.9033    0.0000 C   0  0  0  0  0  0  0  0  0  0  0  0
   -7.8921    1.0216    0.0000 C   0  0  0  0  0  0  0  0  0  0  0  0
   -3.8817    1.2135    0.0000 C   0  0  0  0  0  0  0  0  0  0  0  0
   -3.4182    2.6401    0.0000 C   0  0  0  0  0  0  0  0  0  0  0  0
   -1.9509    2.9520    0.0000 C   0  0  0  0  0  0  0  0  0  0  0  0
   -1.4874    4.3786    0.0000 C   0  0  0  0  0  0  0  0  0  0  0  0
   -2.4911    5.4933    0.0000 N   0  0  0  0  0  0  0  0  0  0  0  0
   -3.9583    5.1814    0.0000 C   0  0  0  0  0  0  0  0  0  0  0  0
   -4.4218    3.7548    0.0000 N   0  0  0  0  0  0  0  0  0  0  0  0
   -0.7500    1.2990    0.0000 C   0  0  0  0  0  0  0  0  0  0  0  0
    0.7500    1.2990    0.0000 C   0  0  0  0  0  0  0  0  0  0  0  0
  1  2  2  0
  2  3  1  0
  3  4  1  0
  2  5  1  0
  5  6  1  0
  6  7  1  0
  7  8  1  0
  8  9  1  0
  9 10  1  0
 10 11  1  0
 11 12  2  0
 12 13  1  0
 13 14  2  0
 14 15  1  0
 15 16  2  0
 16 17  1  0
 16 18  1  0
 18 19  2  0
 12 20  1  0
 20 21  1  0
 21 22  2  0
 22 23  1  0
 23 24  2  0
 24 25  1  0
 25 26  2  0
  8 27  1  0
 27 28  1  0
 28  5  1  0
 20  9  2  0
 26 21  1  0
 19 13  1  0
M  END
>  <Synonyms>  (289) 
SD-0006

>  <Research Codes>  (289) 
SD-0006

>  <Phase>  (289) 
1

>  <Applicants>  (289) 
nan

>  <USAN Stem>  (289) 
nan

>  <USAN Year>  (289) 
nan

>  <USAN Stem Definition>  (289) 
nan

>  <USAN Stem Substem>  (289) 
nan

>  <First Approval>  (289) 
nan

>  <ATC Codes>  (289) 
nan

>  <Level 4 ATC Codes>  (289) 
nan

>  <Level 3 ATC Codes>  (289) 
nan

>  <Level 2 ATC Codes>  (289) 
nan

>  <Level 1 ATC Codes>  (289) 
nan

>  <Indication Class>  (289) 
nan

>  <Patent>  (289) 
nan

>  <Drug Type>  (289) 
1:Synthetic Small Molecule

>  <Passes Rule of Five>  (289) 
True

>  <First In Class>  (289) 
False

>  <Chirality>  (289) 
Achiral Molecule

>  <Prodrug>  (289) 
False

>  <Oral>  (289) 
False

>  <Parenteral>  (289) 
False

>  <Topical>  (289) 
False

>  <Black Box>  (289) 
False

>  <Availability Type>  (289) 
Unknown

>  <Withdrawn Year>  (289) 
nan

>  <Withdrawn Reason>  (289) 
nan

>  <Withdrawn Country>  (289) 
nan

>  <Withdrawn Class>  (289) 
nan

>  <SMILES>  (289) 
O=C(CO)N1CCC(c2n[nH]c(-c3ccc(Cl)cc3)c2-c2ccncn2)CC1

>  <InChi Key>  (289) 
CATQHDWESBRRQA-UHFFFAOYSA-N

$$$$
CHEMBL221186
     RDKit          2D

 68 72  0  0  0  0  0  0  0  0999 V2000
   10.5000   -5.1962    0.0000 C   0  0  0  0  0  0  0  0  0  0  0  0
    9.7500   -3.8971    0.0000 N   0  0  0  0  0  0  0  0  0  0  0  0
   10.5000   -2.5981    0.0000 C   0  0  0  0  0  0  0  0  0  0  0  0
    8.2500   -3.8971    0.0000 C   0  0  0  0  0  0  0  0  0  0  0  0
    7.5000   -2.5981    0.0000 C   0  0  0  0  0  0  0  0  0  0  0  0
    6.0000   -2.5981    0.0000 N   0  0  0  0  0  0  0  0  0  0  0  0
    5.2500   -1.2990    0.0000 C   0  0  0  0  0  0  0  0  0  0  0  0
    6.0000    0.0000    0.0000 O   0  0  0  0  0  0  0  0  0  0  0  0
    3.7500   -1.2990    0.0000 C   0  0  0  0  0  0  0  0  0  0  0  0
    3.0000    0.0000    0.0000 O   0  0  0  0  0  0  0  0  0  0  0  0
    1.5000    0.0000    0.0000 C   0  0  0  0  0  0  0  0  0  0  0  0
    0.7500   -1.2990    0.0000 C   0  0  0  0  0  0  0  0  0  0  0  0
   -0.7500   -1.2990    0.0000 C   0  0  0  0  0  0  0  0  0  0  0  0
   -1.5000    0.0000    0.0000 C   0  0  0  0  0  0  0  0  0  0  0  0
   -0.7500    1.2990    0.0000 C   0  0  0  0  0  0  0  0  0  0  0  0
    0.7500    1.2990    0.0000 C   0  0  0  0  0  0  0  0  0  0  0  0
    1.5834    2.8905    0.0000 C   0  0  0  0  0  0  0  0  0  0  0  0
    2.8306    3.7239    0.0000 C   0  0  0  0  0  0  0  0  0  0  0  0
    3.1748    5.2239    0.0000 C   0  0  0  0  0  0  0  0  0  0  0  0
    4.4739    5.9739    0.0000 C   0  0  0  0  0  0  0  0  0  0  0  0
    5.7729    5.2239    0.0000 C   0  0  0  0  0  0  0  0  0  0  0  0
    5.7729    3.7239    0.0000 C   0  0  0  0  0  0  0  0  0  0  0  0
    4.3017    4.0165    0.0000 C   0  0  0  0  0  0  0  0  0  0  0  0
    4.3017    5.5165    0.0000 O   0  0  0  0  0  0  0  0  0  0  0  0
    5.6008    6.2665    0.0000 C   0  0  0  0  0  0  0  0  0  0  0  0
    5.6008    7.7665    0.0000 C   0  0  0  0  0  0  0  0  0  0  0  0
    4.3017    8.5165    0.0000 O   0  0  0  0  0  0  0  0  0  0  0  0
    6.8998    8.5165    0.0000 N   0  0  0  0  0  0  0  0  0  0  0  0
    6.8998   10.0165    0.0000 C   0  0  0  0  0  0  0  0  0  0  0  0
    8.1989   10.7665    0.0000 C   0  0  0  0  0  0  0  0  0  0  0  0
    8.1989   12.2665    0.0000 N   0  0  0  0  0  0  0  0  0  0  0  0
    9.4979   13.0165    0.0000 C   0  0  0  0  0  0  0  0  0  0  0  0
    6.8998   13.0165    0.0000 C   0  0  0  0  0  0  0  0  0  0  0  0
    7.0201    2.8905    0.0000 C   0  0  0  0  0  0  0  0  0  0  0  0
    7.8535    1.6433    0.0000 C   0  0  0  0  0  0  0  0  0  0  0  0
    9.3535    1.2990    0.0000 C   0  0  0  0  0  0  0  0  0  0  0  0
   10.1035   -0.0000    0.0000 C   0  0  0  0  0  0  0  0  0  0  0  0
    9.3535   -1.2990    0.0000 C   0  0  0  0  0  0  0  0  0  0  0  0
    7.8535   -1.2990    0.0000 C   0  0  0  0  0  0  0  0  0  0  0  0
    8.1461    0.1721    0.0000 C   0  0  0  0  0  0  0  0  0  0  0  0
    9.6461    0.1721    0.0000 O   0  0  0  0  0  0  0  0  0  0  0  0
   10.3961   -1.1269    0.0000 C   0  0  0  0  0  0  0  0  0  0  0  0
   11.8961   -1.1269    0.0000 C   0  0  0  0  0  0  0  0  0  0  0  0
   12.6461    0.1721    0.0000 O   0  0  0  0  0  0  0  0  0  0  0  0
   12.6461   -2.4259    0.0000 N   0  0  0  0  0  0  0  0  0  0  0  0
   14.1461   -2.4259    0.0000 C   0  0  0  0  0  0  0  0  0  0  0  0
   14.8961   -3.7250    0.0000 C   0  0  0  0  0  0  0  0  0  0  0  0
   16.3961   -3.7250    0.0000 N   0  0  0  0  0  0  0  0  0  0  0  0
   17.1461   -5.0240    0.0000 C   0  0  0  0  0  0  0  0  0  0  0  0
   17.1461   -2.4259    0.0000 C   0  0  0  0  0  0  0  0  0  0  0  0
    7.0201   -2.5462    0.0000 C   0  0  0  0  0  0  0  0  0  0  0  0
    5.7729   -3.3796    0.0000 C   0  0  0  0  0  0  0  0  0  0  0  0
    5.4286   -4.8796    0.0000 C   0  0  0  0  0  0  0  0  0  0  0  0
    4.1296   -5.6296    0.0000 C   0  0  0  0  0  0  0  0  0  0  0  0
    2.8306   -4.8796    0.0000 C   0  0  0  0  0  0  0  0  0  0  0  0
    2.8306   -3.3796    0.0000 C   0  0  0  0  0  0  0  0  0  0  0  0
    4.3017   -3.6722    0.0000 C   0  0  0  0  0  0  0  0  0  0  0  0
    4.3017   -5.1722    0.0000 O   0  0  0  0  0  0  0  0  0  0  0  0
    3.0027   -5.9222    0.0000 C   0  0  0  0  0  0  0  0  0  0  0  0
    3.0027   -7.4222    0.0000 C   0  0  0  0  0  0  0  0  0  0  0  0
    4.3017   -8.1722    0.0000 O   0  0  0  0  0  0  0  0  0  0  0  0
    1.7037   -8.1722    0.0000 N   0  0  0  0  0  0  0  0  0  0  0  0
    1.7037   -9.6722    0.0000 C   0  0  0  0  0  0  0  0  0  0  0  0
    0.4046  -10.4222    0.0000 C   0  0  0  0  0  0  0  0  0  0  0  0
    0.4046  -11.9222    0.0000 N   0  0  0  0  0  0  0  0  0  0  0  0
   -0.8944  -12.6722    0.0000 C   0  0  0  0  0  0  0  0  0  0  0  0
    1.7037  -12.6722    0.0000 C   0  0  0  0  0  0  0  0  0  0  0  0
    1.5834   -2.5462    0.0000 C   0  0  0  0  0  0  0  0  0  0  0  0
  1  2  1  0
  2  3  1  0
  2  4  1  0
  4  5  1  0
  5  6  1  0
  6  7  1  0
  7  8  2  0
  7  9  1  0
  9 10  1  0
 10 11  1  0
 11 12  2  0
 12 13  1  0
 13 14  2  0
 14 15  1  0
 15 16  2  0
 16 17  1  0
 17 18  1  0
 18 19  2  0
 19 20  1  0
 20 21  2  0
 21 22  1  0
 22 23  2  0
 23 24  1  0
 24 25  1  0
 25 26  1  0
 26 27  2  0
 26 28  1  0
 28 29  1  0
 29 30  1  0
 30 31  1  0
 31 32  1  0
 31 33  1  0
 22 34  1  0
 34 35  1  0
 35 36  2  0
 36 37  1  0
 37 38  2  0
 38 39  1  0
 39 40  2  0
 40 41  1  0
 41 42  1  0
 42 43  1  0
 43 44  2  0
 43 45  1  0
 45 46  1  0
 46 47  1  0
 47 48  1  0
 48 49  1  0
 48 50  1  0
 39 51  1  0
 51 52  1  0
 52 53  2  0
 53 54  1  0
 54 55  2  0
 55 56  1  0
 56 57  2  0
 57 58  1  0
 58 59  1  0
 59 60  1  0
 60 61  2  0
 60 62  1  0
 62 63  1  0
 63 64  1  0
 64 65  1  0
 65 66  1  0
 65 67  1  0
 56 68  1  0
 16 11  1  0
 23 18  1  0
 40 35  1  0
 57 52  1  0
 68 12  1  0
M  END
>  <Synonyms>  (290) 
CALIXARENE 0118|KM-0118|OTX-008|OTX008|PTX-008

>  <Research Codes>  (290) 
CALIXARENE 0118|KM-0118|OTX008|PTX-008

>  <Phase>  (290) 
1

>  <Applicants>  (290) 
nan

>  <USAN Stem>  (290) 
nan

>  <USAN Year>  (290) 
nan

>  <USAN Stem Definition>  (290) 
nan

>  <USAN Stem Substem>  (290) 
nan

>  <First Approval>  (290) 
nan

>  <ATC Codes>  (290) 
nan

>  <Level 4 ATC Codes>  (290) 
nan

>  <Level 3 ATC Codes>  (290) 
nan

>  <Level 2 ATC Codes>  (290) 
nan

>  <Level 1 ATC Codes>  (290) 
nan

>  <Indication Class>  (290) 
nan

>  <Patent>  (290) 
nan

>  <Drug Type>  (290) 
7:Natural Product-derived

>  <Passes Rule of Five>  (290) 
False

>  <First In Class>  (290) 
False

>  <Chirality>  (290) 
Achiral Molecule

>  <Prodrug>  (290) 
False

>  <Oral>  (290) 
False

>  <Parenteral>  (290) 
False

>  <Topical>  (290) 
False

>  <Black Box>  (290) 
False

>  <Availability Type>  (290) 
Unknown

>  <Withdrawn Year>  (290) 
nan

>  <Withdrawn Reason>  (290) 
nan

>  <Withdrawn Country>  (290) 
nan

>  <Withdrawn Class>  (290) 
nan

>  <SMILES>  (290) 
CN(C)CCNC(=O)COc1c2cccc1Cc1cccc(c1OCC(=O)NCCN(C)C)Cc1cccc(c1OCC(=O)NCCN(C)C)Cc1cccc(c1OCC(=O)NCCN(C)C)C2

>  <InChi Key>  (290) 
CQVAQQNDZCZBSU-UHFFFAOYSA-N

$$$$
CHEMBL2105109
     RDKit          2D

 22 25  0  0  0  0  0  0  0  0999 V2000
   -5.8332   -2.5680    0.0000 C   0  0  0  0  0  0  0  0  0  0  0  0
   -6.5092   -2.9905    0.0000 N   0  0  0  0  0  0  0  0  0  0  0  0
   -7.7227   -2.1088    0.0000 C   0  0  0  0  0  0  0  0  0  0  0  0
   -8.9362   -2.9905    0.0000 C   0  0  0  0  0  0  0  0  0  0  0  0
   -8.4727   -4.4171    0.0000 C   0  0  0  0  0  0  0  0  0  0  0  0
   -6.9727   -4.4171    0.0000 C   0  0  0  0  0  0  0  0  0  0  0  0
   -5.4933   -4.1162    0.0000 C   0  0  0  0  0  0  0  0  0  0  0  0
   -5.1814   -2.6490    0.0000 C   0  0  0  0  0  0  0  0  0  0  0  0
   -3.7548   -2.1855    0.0000 N   0  0  0  0  0  0  0  0  0  0  0  0
   -2.6401   -3.1891    0.0000 C   0  0  0  0  0  0  0  0  0  0  0  0
   -2.9520   -4.6564    0.0000 O   0  0  0  0  0  0  0  0  0  0  0  0
   -1.2135   -2.7256    0.0000 N   0  0  0  0  0  0  0  0  0  0  0  0
   -0.0000   -3.6073    0.0000 C   0  0  0  0  0  0  0  0  0  0  0  0
    0.0000   -5.1073    0.0000 O   0  0  0  0  0  0  0  0  0  0  0  0
    1.2135   -2.7256    0.0000 N   0  0  0  0  0  0  0  0  0  0  0  0
    0.7500   -1.2990    0.0000 C   0  0  0  0  0  0  0  0  0  0  0  0
    1.5000    0.0000    0.0000 C   0  0  0  0  0  0  0  0  0  0  0  0
    0.7500    1.2990    0.0000 C   0  0  0  0  0  0  0  0  0  0  0  0
   -0.7500    1.2990    0.0000 C   0  0  0  0  0  0  0  0  0  0  0  0
   -1.5000    0.0000    0.0000 C   0  0  0  0  0  0  0  0  0  0  0  0
   -0.7500   -1.2990    0.0000 C   0  0  0  0  0  0  0  0  0  0  0  0
   -6.2961   -1.6453    0.0000 C   0  0  0  0  0  0  0  0  0  0  0  0
  1  2  1  0
  2  3  1  0
  3  4  1  1
  4  5  1  0
  6  5  1  1
  6  7  1  0
  7  8  1  0
  8  9  1  1
  9 10  1  0
 10 11  2  0
 10 12  1  0
 12 13  1  0
 13 14  2  0
 13 15  1  0
 15 16  1  0
 16 17  2  0
 17 18  1  0
 18 19  2  0
 19 20  1  0
 20 21  2  0
  8 22  1  0
  6  2  1  0
 21 12  1  0
 22  3  1  0
 21 16  1  0
M  END
>  <Synonyms>  (291) 
DAU-6215CL|DAU6215CL|ITASETRON|U-98079A

>  <Research Codes>  (291) 
DAU-6215CL|Dau6215Cl|U-98079A

>  <Phase>  (291) 
1

>  <Applicants>  (291) 
nan

>  <USAN Stem>  (291) 
'-setron'

>  <USAN Year>  (291) 
1995.0

>  <USAN Stem Definition>  (291) 
serotonin 5-HT3 antagonists

>  <USAN Stem Substem>  (291) 
'-setron(-setron)'

>  <First Approval>  (291) 
nan

>  <ATC Codes>  (291) 
nan

>  <Level 4 ATC Codes>  (291) 
nan

>  <Level 3 ATC Codes>  (291) 
nan

>  <Level 2 ATC Codes>  (291) 
nan

>  <Level 1 ATC Codes>  (291) 
nan

>  <Indication Class>  (291) 
Antidepressant; Anti-Emetic; Anti-Anxiety Agent

>  <Patent>  (291) 
nan

>  <Drug Type>  (291) 
1:Synthetic Small Molecule

>  <Passes Rule of Five>  (291) 
True

>  <First In Class>  (291) 
False

>  <Chirality>  (291) 
Single Stereoisomer

>  <Prodrug>  (291) 
False

>  <Oral>  (291) 
False

>  <Parenteral>  (291) 
False

>  <Topical>  (291) 
False

>  <Black Box>  (291) 
False

>  <Availability Type>  (291) 
Unknown

>  <Withdrawn Year>  (291) 
nan

>  <Withdrawn Reason>  (291) 
nan

>  <Withdrawn Country>  (291) 
nan

>  <Withdrawn Class>  (291) 
nan

>  <SMILES>  (291) 
CN1[C@H]2CC[C@@H]1C[C@H](NC(=O)n1c(=O)[nH]c3ccccc31)C2

>  <InChi Key>  (291) 
RWXRJSRJIITQAK-ZSBIGDGJSA-N

$$$$
CHEMBL591429
     RDKit          2D

 29 31  0  0  0  0  0  0  0  0999 V2000
    5.2500   -1.2990    0.0000 C   0  0  0  0  0  0  0  0  0  0  0  0
    3.7500   -1.2990    0.0000 C   0  0  0  0  0  0  0  0  0  0  0  0
    3.0000    0.0000    0.0000 C   0  0  0  0  0  0  0  0  0  0  0  0
    1.5000    0.0000    0.0000 C   0  0  0  0  0  0  0  0  0  0  0  0
    0.7500   -1.2990    0.0000 C   0  0  0  0  0  0  0  0  0  0  0  0
   -0.7500   -1.2990    0.0000 C   0  0  0  0  0  0  0  0  0  0  0  0
   -1.5000    0.0000    0.0000 C   0  0  0  0  0  0  0  0  0  0  0  0
   -0.7500    1.2990    0.0000 C   0  0  0  0  0  0  0  0  0  0  0  0
   -1.5000    2.5981    0.0000 C   0  0  0  0  0  0  0  0  0  0  0  0
   -0.7500    3.8971    0.0000 N   0  0  0  0  0  0  0  0  0  0  0  0
   -1.5000    5.1962    0.0000 N   0  0  0  0  0  0  0  0  0  0  0  0
   -0.7500    6.4952    0.0000 C   0  0  0  0  0  0  0  0  0  0  0  0
    0.7500    6.4952    0.0000 O   0  0  0  0  0  0  0  0  0  0  0  0
   -1.5000    7.7942    0.0000 C   0  0  0  0  0  0  0  0  0  0  0  0
   -0.7500    9.0933    0.0000 N   0  0  0  0  0  0  0  0  0  0  0  0
    0.7500    9.0933    0.0000 C   0  0  0  0  0  0  0  0  0  0  0  0
    1.5000   10.3923    0.0000 C   0  0  0  0  0  0  0  0  0  0  0  0
    0.7500   11.6913    0.0000 N   0  0  0  0  0  0  0  0  0  0  0  0
    1.5000   12.9904    0.0000 C   0  0  0  0  0  0  0  0  0  0  0  0
    3.0000   12.9904    0.0000 C   0  0  0  0  0  0  0  0  0  0  0  0
    3.7500   11.6913    0.0000 C   0  0  0  0  0  0  0  0  0  0  0  0
    5.2500   11.6913    0.0000 C   0  0  0  0  0  0  0  0  0  0  0  0
    6.0000   12.9904    0.0000 C   0  0  0  0  0  0  0  0  0  0  0  0
    5.2500   14.2894    0.0000 C   0  0  0  0  0  0  0  0  0  0  0  0
    3.7500   14.2894    0.0000 C   0  0  0  0  0  0  0  0  0  0  0  0
   -0.7500   11.6913    0.0000 C   0  0  0  0  0  0  0  0  0  0  0  0
   -1.5000   10.3923    0.0000 C   0  0  0  0  0  0  0  0  0  0  0  0
    0.7500    1.2990    0.0000 C   0  0  0  0  0  0  0  0  0  0  0  0
    1.5000    2.5981    0.0000 O   0  0  0  0  0  0  0  0  0  0  0  0
  1  2  2  0
  2  3  1  0
  3  4  1  0
  4  5  2  0
  5  6  1  0
  6  7  2  0
  7  8  1  0
  8  9  1  0
  9 10  2  3
 10 11  1  0
 11 12  1  0
 12 13  2  0
 12 14  1  0
 14 15  1  0
 15 16  1  0
 16 17  1  0
 17 18  1  0
 18 19  1  0
 19 20  1  0
 20 21  2  0
 21 22  1  0
 22 23  2  0
 23 24  1  0
 24 25  2  0
 18 26  1  0
 26 27  1  0
  8 28  2  0
 28 29  1  0
 28  4  1  0
 27 15  1  0
 25 20  1  0
M  END
>  <Synonyms>  (292) 
PAC-1

>  <Research Codes>  (292) 
PAC-1

>  <Phase>  (292) 
1

>  <Applicants>  (292) 
nan

>  <USAN Stem>  (292) 
nan

>  <USAN Year>  (292) 
nan

>  <USAN Stem Definition>  (292) 
nan

>  <USAN Stem Substem>  (292) 
nan

>  <First Approval>  (292) 
nan

>  <ATC Codes>  (292) 
nan

>  <Level 4 ATC Codes>  (292) 
nan

>  <Level 3 ATC Codes>  (292) 
nan

>  <Level 2 ATC Codes>  (292) 
nan

>  <Level 1 ATC Codes>  (292) 
nan

>  <Indication Class>  (292) 
nan

>  <Patent>  (292) 
nan

>  <Drug Type>  (292) 
1:Synthetic Small Molecule

>  <Passes Rule of Five>  (292) 
True

>  <First In Class>  (292) 
False

>  <Chirality>  (292) 
Achiral Molecule

>  <Prodrug>  (292) 
False

>  <Oral>  (292) 
False

>  <Parenteral>  (292) 
False

>  <Topical>  (292) 
False

>  <Black Box>  (292) 
False

>  <Availability Type>  (292) 
Unknown

>  <Withdrawn Year>  (292) 
nan

>  <Withdrawn Reason>  (292) 
nan

>  <Withdrawn Country>  (292) 
nan

>  <Withdrawn Class>  (292) 
nan

>  <SMILES>  (292) 
C=CCc1cccc(/C=N/NC(=O)CN2CCN(Cc3ccccc3)CC2)c1O

>  <InChi Key>  (292) 
YQNRVGJCPCNMKT-UHFFFAOYSA-N

$$$$
CHEMBL3338194
     RDKit          2D

 33 36  0  0  0  0  0  0  0  0999 V2000
    4.5000    0.0000    0.0000 C   0  0  0  0  0  0  0  0  0  0  0  0
    3.0000    0.0000    0.0000 S   0  0  0  0  0  0  0  0  0  0  0  0
    3.0000    1.5000    0.0000 O   0  0  0  0  0  0  0  0  0  0  0  0
    3.0000   -1.5000    0.0000 O   0  0  0  0  0  0  0  0  0  0  0  0
    1.5000    0.0000    0.0000 C   0  0  0  0  0  0  0  0  0  0  0  0
    0.7500   -1.2990    0.0000 C   0  0  0  0  0  0  0  0  0  0  0  0
   -0.7500   -1.2990    0.0000 C   0  0  0  0  0  0  0  0  0  0  0  0
   -1.5000    0.0000    0.0000 C   0  0  0  0  0  0  0  0  0  0  0  0
   -3.0000    0.0000    0.0000 N   0  0  0  0  0  0  0  0  0  0  0  0
   -3.7500    1.2990    0.0000 C   0  0  0  0  0  0  0  0  0  0  0  0
   -5.2500    1.2990    0.0000 C   0  0  0  0  0  0  0  0  0  0  0  0
   -6.0000    2.5981    0.0000 Cl  0  0  0  0  0  0  0  0  0  0  0  0
   -6.0000    0.0000    0.0000 C   0  0  0  0  0  0  0  0  0  0  0  0
   -7.5000    0.0000    0.0000 O   0  0  0  0  0  0  0  0  0  0  0  0
   -8.2500   -1.2990    0.0000 C   0  0  0  0  0  0  0  0  0  0  0  0
   -9.7500   -1.2990    0.0000 C   0  0  0  0  0  0  0  0  0  0  0  0
  -10.5000   -2.5981    0.0000 C   0  0  0  0  0  0  0  0  0  0  0  0
   -9.7500   -3.8971    0.0000 N   0  0  0  0  0  0  0  0  0  0  0  0
  -10.5000   -5.1962    0.0000 C   0  0  0  0  0  0  0  0  0  0  0  0
  -12.0000   -5.1962    0.0000 N   0  0  0  0  0  0  0  0  0  0  0  0
  -12.7500   -6.4952    0.0000 C   0  0  0  0  0  0  0  0  0  0  0  0
  -12.0000   -7.7942    0.0000 C   0  0  0  0  0  0  0  0  0  0  0  0
  -12.7500   -9.0933    0.0000 Cl  0  0  0  0  0  0  0  0  0  0  0  0
  -10.5000   -7.7942    0.0000 C   0  0  0  0  0  0  0  0  0  0  0  0
   -9.7500   -6.4952    0.0000 N   0  0  0  0  0  0  0  0  0  0  0  0
   -8.2500   -3.8971    0.0000 C   0  0  0  0  0  0  0  0  0  0  0  0
   -7.5000   -2.5981    0.0000 C   0  0  0  0  0  0  0  0  0  0  0  0
   -5.2500   -1.2990    0.0000 C   0  0  0  0  0  0  0  0  0  0  0  0
   -3.7500   -1.2990    0.0000 C   0  0  0  0  0  0  0  0  0  0  0  0
   -3.0000   -2.5981    0.0000 O   0  0  0  0  0  0  0  0  0  0  0  0
   -0.7500    1.2990    0.0000 C   0  0  0  0  0  0  0  0  0  0  0  0
   -1.5000    2.5981    0.0000 F   0  0  0  0  0  0  0  0  0  0  0  0
    0.7500    1.2990    0.0000 C   0  0  0  0  0  0  0  0  0  0  0  0
  1  2  1  0
  2  3  2  0
  2  4  2  0
  2  5  1  0
  5  6  2  0
  6  7  1  0
  7  8  2  0
  8  9  1  0
  9 10  1  0
 10 11  2  0
 11 12  1  0
 11 13  1  0
 13 14  1  0
 14 15  1  0
 15 16  1  0
 16 17  1  0
 17 18  1  0
 18 19  1  0
 19 20  2  0
 20 21  1  0
 21 22  2  0
 22 23  1  0
 22 24  1  0
 24 25  2  0
 18 26  1  0
 26 27  1  0
 13 28  2  0
 28 29  1  0
 29 30  2  0
  8 31  1  0
 31 32  1  0
 31 33  2  0
 33  5  1  0
 29  9  1  0
 27 15  1  0
 25 19  1  0
M  END
>  <Synonyms>  (293) 
BMS-903452

>  <Research Codes>  (293) 
nan

>  <Phase>  (293) 
1

>  <Applicants>  (293) 
nan

>  <USAN Stem>  (293) 
nan

>  <USAN Year>  (293) 
nan

>  <USAN Stem Definition>  (293) 
nan

>  <USAN Stem Substem>  (293) 
nan

>  <First Approval>  (293) 
nan

>  <ATC Codes>  (293) 
nan

>  <Level 4 ATC Codes>  (293) 
nan

>  <Level 3 ATC Codes>  (293) 
nan

>  <Level 2 ATC Codes>  (293) 
nan

>  <Level 1 ATC Codes>  (293) 
nan

>  <Indication Class>  (293) 
nan

>  <Patent>  (293) 
nan

>  <Drug Type>  (293) 
1:Synthetic Small Molecule

>  <Passes Rule of Five>  (293) 
False

>  <First In Class>  (293) 
False

>  <Chirality>  (293) 
Achiral Molecule

>  <Prodrug>  (293) 
False

>  <Oral>  (293) 
False

>  <Parenteral>  (293) 
False

>  <Topical>  (293) 
False

>  <Black Box>  (293) 
False

>  <Availability Type>  (293) 
Unknown

>  <Withdrawn Year>  (293) 
nan

>  <Withdrawn Reason>  (293) 
nan

>  <Withdrawn Country>  (293) 
nan

>  <Withdrawn Class>  (293) 
nan

>  <SMILES>  (293) 
CS(=O)(=O)c1ccc(-n2cc(Cl)c(OC3CCN(c4ncc(Cl)cn4)CC3)cc2=O)c(F)c1

>  <InChi Key>  (293) 
OGIAVRWXUPYGGC-UHFFFAOYSA-N

$$$$
CHEMBL2035460
     RDKit          2D

 22 25  0  0  0  0  0  0  0  0999 V2000
    2.6401   -3.1891    0.0000 O   0  0  0  0  0  0  0  0  0  0  0  0
    1.2135   -2.7256    0.0000 C   0  0  0  0  0  0  0  0  0  0  0  0
    0.7500   -1.2990    0.0000 C   0  0  0  0  0  0  0  0  0  0  0  0
    1.5000    0.0000    0.0000 C   0  0  0  0  0  0  0  0  0  0  0  0
    0.7500    1.2990    0.0000 C   0  0  0  0  0  0  0  0  0  0  0  0
   -0.7500    1.2990    0.0000 C   0  0  0  0  0  0  0  0  0  0  0  0
   -1.5000    0.0000    0.0000 C   0  0  0  0  0  0  0  0  0  0  0  0
   -0.7500   -1.2990    0.0000 C   0  0  0  0  0  0  0  0  0  0  0  0
   -1.2135   -2.7256    0.0000 Se  0  0  0  0  0  2  0  0  0  0  0  0
   -0.0000   -3.6073    0.0000 N   0  0  0  0  0  0  0  0  0  0  0  0
   -0.0000   -5.1073    0.0000 C   0  0  0  0  0  0  0  0  0  0  0  0
   -1.2990   -5.8573    0.0000 C   0  0  0  0  0  0  0  0  0  0  0  0
   -1.2990   -7.3573    0.0000 N   0  0  0  0  0  0  0  0  0  0  0  0
   -2.5126   -8.2390    0.0000 Se  0  0  0  0  0  2  0  0  0  0  0  0
   -2.0490   -9.6656    0.0000 C   0  0  0  0  0  0  0  0  0  0  0  0
   -2.7990  -10.9646    0.0000 C   0  0  0  0  0  0  0  0  0  0  0  0
   -2.0490  -12.2636    0.0000 C   0  0  0  0  0  0  0  0  0  0  0  0
   -0.5490  -12.2636    0.0000 C   0  0  0  0  0  0  0  0  0  0  0  0
    0.2010  -10.9646    0.0000 C   0  0  0  0  0  0  0  0  0  0  0  0
   -0.5490   -9.6656    0.0000 C   0  0  0  0  0  0  0  0  0  0  0  0
   -0.0855   -8.2390    0.0000 C   0  0  0  0  0  0  0  0  0  0  0  0
    1.3411   -7.7755    0.0000 O   0  0  0  0  0  0  0  0  0  0  0  0
  1  2  2  0
  2  3  1  0
  3  4  2  0
  4  5  1  0
  5  6  2  0
  6  7  1  0
  7  8  2  0
  8  9  1  0
  9 10  1  0
 10 11  1  0
 11 12  1  0
 12 13  1  0
 13 14  1  0
 14 15  1  0
 15 16  2  0
 16 17  1  0
 17 18  2  0
 18 19  1  0
 19 20  2  0
 20 21  1  0
 21 22  2  0
 10  2  1  0
 21 13  1  0
  8  3  1  0
 20 15  1  0
M  END
>  <Synonyms>  (294) 
Ethaselen

>  <Research Codes>  (294) 
nan

>  <Phase>  (294) 
1

>  <Applicants>  (294) 
nan

>  <USAN Stem>  (294) 
nan

>  <USAN Year>  (294) 
nan

>  <USAN Stem Definition>  (294) 
nan

>  <USAN Stem Substem>  (294) 
nan

>  <First Approval>  (294) 
nan

>  <ATC Codes>  (294) 
nan

>  <Level 4 ATC Codes>  (294) 
nan

>  <Level 3 ATC Codes>  (294) 
nan

>  <Level 2 ATC Codes>  (294) 
nan

>  <Level 1 ATC Codes>  (294) 
nan

>  <Indication Class>  (294) 
nan

>  <Patent>  (294) 
nan

>  <Drug Type>  (294) 
1:Synthetic Small Molecule

>  <Passes Rule of Five>  (294) 
False

>  <First In Class>  (294) 
False

>  <Chirality>  (294) 
Achiral Molecule

>  <Prodrug>  (294) 
False

>  <Oral>  (294) 
False

>  <Parenteral>  (294) 
False

>  <Topical>  (294) 
False

>  <Black Box>  (294) 
False

>  <Availability Type>  (294) 
Unknown

>  <Withdrawn Year>  (294) 
nan

>  <Withdrawn Reason>  (294) 
nan

>  <Withdrawn Country>  (294) 
nan

>  <Withdrawn Class>  (294) 
nan

>  <SMILES>  (294) 
O=c1c2ccccc2[se]n1CCn1[se]c2ccccc2c1=O

>  <InChi Key>  (294) 
SFFSGPCYJCMDJM-UHFFFAOYSA-N

$$$$
CHEMBL317840
     RDKit          2D

 44 48  0  0  0  0  0  0  0  0999 V2000
    2.7760    0.0000    0.0000 C   0  0  0  0  0  0  0  0  0  0  0  0
    1.2760    0.0000    0.0000 C   0  0  0  0  0  0  0  0  0  0  0  0
    0.3943    1.2135    0.0000 C   0  0  0  0  0  0  0  0  0  0  0  0
    0.8578    2.6401    0.0000 C   0  0  0  0  0  0  0  0  0  0  0  0
   -0.1459    3.7548    0.0000 C   0  0  0  0  0  0  0  0  0  0  0  0
    0.3177    5.1814    0.0000 C   0  0  0  0  0  0  0  0  0  0  0  0
   -0.6860    6.2961    0.0000 O   0  0  0  0  0  0  0  0  0  0  0  0
    1.7849    5.4933    0.0000 O   0  0  0  0  0  0  0  0  0  0  0  0
   -1.0323    0.7500    0.0000 C   0  0  0  0  0  0  0  0  0  0  0  0
   -2.7425    1.6861    0.0000 C   0  0  0  0  0  0  0  0  0  0  0  0
   -4.2413    1.6272    0.0000 C   0  0  0  0  0  0  0  0  0  0  0  0
   -5.6035    0.9992    0.0000 N   0  0  0  0  0  0  0  0  0  0  0  0
   -6.6217   -0.1023    0.0000 C   0  0  0  0  0  0  0  0  0  0  0  0
   -7.1409   -1.5096    0.0000 C   0  0  0  0  0  0  0  0  0  0  0  0
   -7.0820   -3.0084    0.0000 C   0  0  0  0  0  0  0  0  0  0  0  0
   -6.4540   -4.3706    0.0000 N   0  0  0  0  0  0  0  0  0  0  0  0
   -5.3525   -5.3888    0.0000 C   0  0  0  0  0  0  0  0  0  0  0  0
   -3.9452   -5.9080    0.0000 C   0  0  0  0  0  0  0  0  0  0  0  0
   -2.4464   -5.8491    0.0000 C   0  0  0  0  0  0  0  0  0  0  0  0
   -1.0842   -5.2211    0.0000 N   0  0  0  0  0  0  0  0  0  0  0  0
   -0.0660   -4.1197    0.0000 C   0  0  0  0  0  0  0  0  0  0  0  0
    0.4532   -2.7124    0.0000 C   0  0  0  0  0  0  0  0  0  0  0  0
    0.3943   -1.2135    0.0000 C   0  0  0  0  0  0  0  0  0  0  0  0
   -1.0323   -0.7500    0.0000 N   0  0  0  0  0  0  0  0  0  0  0  0
    0.3975   -5.5462    0.0000 C   0  0  0  0  0  0  0  0  0  0  0  0
    1.8241   -6.0098    0.0000 C   0  0  0  0  0  0  0  0  0  0  0  0
   -0.8160   -6.4279    0.0000 C   0  0  0  0  0  0  0  0  0  0  0  0
   -0.8160   -7.9279    0.0000 C   0  0  0  0  0  0  0  0  0  0  0  0
   -2.1150   -8.6779    0.0000 C   0  0  0  0  0  0  0  0  0  0  0  0
    0.4831   -8.6779    0.0000 O   0  0  0  0  0  0  0  0  0  0  0  0
   -6.7791   -5.8524    0.0000 C   0  0  0  0  0  0  0  0  0  0  0  0
   -7.2426   -7.2790    0.0000 C   0  0  0  0  0  0  0  0  0  0  0  0
   -7.6608   -4.6388    0.0000 C   0  0  0  0  0  0  0  0  0  0  0  0
   -9.1608   -4.6388    0.0000 C   0  0  0  0  0  0  0  0  0  0  0  0
   -9.9108   -3.3398    0.0000 C   0  0  0  0  0  0  0  0  0  0  0  0
   -9.9108   -5.9379    0.0000 O   0  0  0  0  0  0  0  0  0  0  0  0
   -7.0852    1.3243    0.0000 C   0  0  0  0  0  0  0  0  0  0  0  0
   -8.5118    1.7878    0.0000 C   0  0  0  0  0  0  0  0  0  0  0  0
   -5.8717    2.2060    0.0000 C   0  0  0  0  0  0  0  0  0  0  0  0
   -5.8717    3.7060    0.0000 C   0  0  0  0  0  0  0  0  0  0  0  0
   -4.5727    4.4560    0.0000 C   0  0  0  0  0  0  0  0  0  0  0  0
   -4.5727    5.9560    0.0000 C   0  0  0  0  0  0  0  0  0  0  0  0
   -3.2736    6.7060    0.0000 O   0  0  0  0  0  0  0  0  0  0  0  0
   -5.8717    6.7060    0.0000 O   0  0  0  0  0  0  0  0  0  0  0  0
  1  2  1  0
  2  3  2  0
  3  4  1  0
  4  5  1  0
  5  6  1  0
  6  7  2  0
  6  8  1  0
  3  9  1  0
  9 10  2  0
 10 11  1  0
 11 12  1  0
 12 13  1  0
 13 14  1  0
 14 15  2  0
 15 16  1  0
 16 17  2  0
 17 18  1  0
 18 19  2  0
 19 20  1  0
 20 21  2  0
 21 22  1  0
 22 23  2  0
 23 24  1  0
 21 25  1  0
 25 26  1  0
 25 27  2  0
 27 28  1  0
 28 29  1  0
 28 30  1  0
 17 31  1  0
 31 32  1  0
 31 33  2  0
 33 34  1  0
 34 35  1  0
 34 36  1  0
 13 37  2  0
 37 38  1  0
 37 39  1  0
 39 40  1  0
 40 41  1  0
 41 42  1  0
 42 43  2  0
 42 44  1  0
 23  2  1  0
 24  9  1  0
 39 11  2  0
 33 15  1  0
 27 19  1  0
M  END
>  <Synonyms>  (295) 
HAEMAPORPHYRIN|Hematoporphyrin

>  <Research Codes>  (295) 
nan

>  <Phase>  (295) 
1

>  <Applicants>  (295) 
nan

>  <USAN Stem>  (295) 
nan

>  <USAN Year>  (295) 
nan

>  <USAN Stem Definition>  (295) 
nan

>  <USAN Stem Substem>  (295) 
nan

>  <First Approval>  (295) 
nan

>  <ATC Codes>  (295) 
nan

>  <Level 4 ATC Codes>  (295) 
nan

>  <Level 3 ATC Codes>  (295) 
nan

>  <Level 2 ATC Codes>  (295) 
nan

>  <Level 1 ATC Codes>  (295) 
nan

>  <Indication Class>  (295) 
nan

>  <Patent>  (295) 
nan

>  <Drug Type>  (295) 
7:Natural Product-derived

>  <Passes Rule of Five>  (295) 
False

>  <First In Class>  (295) 
False

>  <Chirality>  (295) 
Unknown

>  <Prodrug>  (295) 
False

>  <Oral>  (295) 
False

>  <Parenteral>  (295) 
False

>  <Topical>  (295) 
False

>  <Black Box>  (295) 
False

>  <Availability Type>  (295) 
Unknown

>  <Withdrawn Year>  (295) 
nan

>  <Withdrawn Reason>  (295) 
nan

>  <Withdrawn Country>  (295) 
nan

>  <Withdrawn Class>  (295) 
nan

>  <SMILES>  (295) 
CC1=C(CCC(=O)O)c2cc3nc(cc4[nH]c(cc5[nH]c(cc1n2)c(C)c5C(C)O)c(C)c4C(C)O)C(C)=C3CCC(=O)O

>  <InChi Key>  (295) 
DWZDGMDDUHAIQA-UHFFFAOYSA-N

$$$$
CHEMBL1652465
     RDKit          2D

 52 56  0  0  0  0  0  0  0  0999 V2000
   -1.1496    4.8695    0.0000 C   0  0  0  0  0  0  0  0  0  0  0  0
    0.3177    5.1814    0.0000 C   0  0  0  0  0  0  0  0  0  0  0  0
    1.3213    4.0667    0.0000 C   0  0  0  0  0  0  0  0  0  0  0  0
    0.7812    6.6080    0.0000 C   0  0  0  0  0  0  0  0  0  0  0  0
    2.2484    6.9199    0.0000 O   0  0  0  0  0  0  0  0  0  0  0  0
    2.7119    8.3464    0.0000 C   0  0  0  0  0  0  0  0  0  0  0  0
    1.7082    9.4612    0.0000 O   0  0  0  0  0  0  0  0  0  0  0  0
    4.1791    8.6583    0.0000 C   0  0  0  0  0  0  0  0  0  0  0  0
    4.6427   10.0849    0.0000 C   0  0  0  0  0  0  0  0  0  0  0  0
    3.6390   11.1996    0.0000 C   0  0  0  0  0  0  0  0  0  0  0  0
    4.1025   12.6262    0.0000 C   0  0  0  0  0  0  0  0  0  0  0  0
    3.0988   13.7409    0.0000 C   0  0  0  0  0  0  0  0  0  0  0  0
    1.6316   13.4291    0.0000 C   0  0  0  0  0  0  0  0  0  0  0  0
    1.1681   12.0025    0.0000 C   0  0  0  0  0  0  0  0  0  0  0  0
    2.1718   10.8878    0.0000 C   0  0  0  0  0  0  0  0  0  0  0  0
    5.1828    7.5436    0.0000 N   0  0  0  0  0  0  0  0  0  0  0  0
    4.7193    6.1170    0.0000 P   0  0  0  0  0  0  0  0  0  0  0  0
    3.2927    6.5805    0.0000 O   0  0  0  0  0  0  0  0  0  0  0  0
    4.2558    4.6904    0.0000 C   0  0  0  0  0  0  0  0  0  0  0  0
    2.7886    4.3786    0.0000 O   0  0  0  0  0  0  0  0  0  0  0  0
    2.3250    2.9520    0.0000 C   0  0  0  0  0  0  0  0  0  0  0  0
    0.8578    2.6401    0.0000 C   0  0  0  0  0  0  0  0  0  0  0  0
    0.3943    1.2135    0.0000 N   0  0  0  0  0  0  0  0  0  0  0  0
    1.2760    0.0000    0.0000 C   0  0  0  0  0  0  0  0  0  0  0  0
    0.3943   -1.2135    0.0000 N   0  0  0  0  0  0  0  0  0  0  0  0
   -1.0323   -0.7500    0.0000 C   0  0  0  0  0  0  0  0  0  0  0  0
   -2.3313   -1.5000    0.0000 C   0  0  0  0  0  0  0  0  0  0  0  0
   -2.3313   -3.0000    0.0000 N   0  0  0  0  0  0  0  0  0  0  0  0
   -3.6304   -3.7500    0.0000 C   0  0  0  0  0  0  0  0  0  0  0  0
   -4.3804   -5.0490    0.0000 C   0  0  0  0  0  0  0  0  0  0  0  0
   -5.1304   -3.7500    0.0000 C   0  0  0  0  0  0  0  0  0  0  0  0
   -3.6304   -0.7500    0.0000 N   0  0  0  0  0  0  0  0  0  0  0  0
   -3.6304    0.7500    0.0000 C   0  0  0  0  0  0  0  0  0  0  0  0
   -4.9294    1.5000    0.0000 N   0  0  0  0  0  0  0  0  0  0  0  0
   -2.3313    1.5000    0.0000 N   0  0  0  0  0  0  0  0  0  0  0  0
   -1.0323    0.7500    0.0000 C   0  0  0  0  0  0  0  0  0  0  0  0
    6.1459    5.6535    0.0000 N   0  0  0  0  0  0  0  0  0  0  0  0
    7.2606    6.6572    0.0000 C   0  0  0  0  0  0  0  0  0  0  0  0
    8.6872    6.1937    0.0000 C   0  0  0  0  0  0  0  0  0  0  0  0
    9.8019    7.1974    0.0000 C   0  0  0  0  0  0  0  0  0  0  0  0
   11.2285    6.7338    0.0000 C   0  0  0  0  0  0  0  0  0  0  0  0
   12.3432    7.7375    0.0000 C   0  0  0  0  0  0  0  0  0  0  0  0
   12.0314    9.2047    0.0000 C   0  0  0  0  0  0  0  0  0  0  0  0
   10.6048    9.6683    0.0000 C   0  0  0  0  0  0  0  0  0  0  0  0
    9.4901    8.6646    0.0000 C   0  0  0  0  0  0  0  0  0  0  0  0
    6.9488    8.1244    0.0000 C   0  0  0  0  0  0  0  0  0  0  0  0
    5.5222    8.5879    0.0000 O   0  0  0  0  0  0  0  0  0  0  0  0
    8.0635    9.1281    0.0000 O   0  0  0  0  0  0  0  0  0  0  0  0
    7.7516   10.5953    0.0000 C   0  0  0  0  0  0  0  0  0  0  0  0
    8.8663   11.5990    0.0000 C   0  0  0  0  0  0  0  0  0  0  0  0
    8.5545   13.0662    0.0000 C   0  0  0  0  0  0  0  0  0  0  0  0
   10.2929   11.1355    0.0000 C   0  0  0  0  0  0  0  0  0  0  0  0
  1  2  1  0
  2  3  1  0
  2  4  1  0
  4  5  1  0
  5  6  1  0
  6  7  2  0
  6  8  1  0
  8  9  1  0
  9 10  1  0
 10 11  2  0
 11 12  1  0
 12 13  2  0
 13 14  1  0
 14 15  2  0
  8 16  1  0
 16 17  1  0
 17 18  2  0
 17 19  1  0
 19 20  1  0
 20 21  1  0
 21 22  1  0
 22 23  1  0
 23 24  1  0
 24 25  2  0
 25 26  1  0
 26 27  1  0
 27 28  2  3
 28 29  1  0
 29 30  1  0
 30 31  1  0
 27 32  1  0
 32 33  1  0
 33 34  2  0
 33 35  1  0
 35 36  1  0
 17 37  1  0
 37 38  1  0
 38 39  1  0
 39 40  1  0
 40 41  2  0
 41 42  1  0
 42 43  2  0
 43 44  1  0
 44 45  2  0
 38 46  1  0
 46 47  2  0
 46 48  1  0
 48 49  1  0
 49 50  1  0
 50 51  1  0
 50 52  1  0
 15 10  1  0
 36 23  1  0
 45 40  1  0
 36 26  2  0
 31 29  1  0
M  END
>  <Synonyms>  (296) 
GS-9191

>  <Research Codes>  (296) 
GS-9191

>  <Phase>  (296) 
1

>  <Applicants>  (296) 
nan

>  <USAN Stem>  (296) 
nan

>  <USAN Year>  (296) 
nan

>  <USAN Stem Definition>  (296) 
nan

>  <USAN Stem Substem>  (296) 
nan

>  <First Approval>  (296) 
nan

>  <ATC Codes>  (296) 
nan

>  <Level 4 ATC Codes>  (296) 
nan

>  <Level 3 ATC Codes>  (296) 
nan

>  <Level 2 ATC Codes>  (296) 
nan

>  <Level 1 ATC Codes>  (296) 
nan

>  <Indication Class>  (296) 
nan

>  <Patent>  (296) 
nan

>  <Drug Type>  (296) 
1:Synthetic Small Molecule

>  <Passes Rule of Five>  (296) 
False

>  <First In Class>  (296) 
False

>  <Chirality>  (296) 
Single Stereoisomer

>  <Prodrug>  (296) 
False

>  <Oral>  (296) 
False

>  <Parenteral>  (296) 
False

>  <Topical>  (296) 
False

>  <Black Box>  (296) 
False

>  <Availability Type>  (296) 
Unknown

>  <Withdrawn Year>  (296) 
nan

>  <Withdrawn Reason>  (296) 
nan

>  <Withdrawn Country>  (296) 
nan

>  <Withdrawn Class>  (296) 
nan

>  <SMILES>  (296) 
CC(C)COC(=O)[C@H](Cc1ccccc1)NP(=O)(COCCn1cnc2c(NC3CC3)nc(N)nc21)N[C@@H](Cc1ccccc1)C(=O)OCC(C)C

>  <InChi Key>  (296) 
YTMOQFAFGKLYIW-UHFFFAOYSA-N

$$$$
CHEMBL501680
     RDKit          2D

 43 46  0  0  0  0  0  0  0  0999 V2000
    3.5260   -1.2990    0.0000 C   0  0  0  0  0  0  0  0  0  0  0  0
    2.7760   -0.0000    0.0000 C   0  0  0  0  0  0  0  0  0  0  0  0
    1.2760   -0.0000    0.0000 C   0  0  0  0  0  0  0  0  0  0  0  0
    0.3943    1.2135    0.0000 C   0  0  0  0  0  0  0  0  0  0  0  0
    0.8578    2.6401    0.0000 C   0  0  0  0  0  0  0  0  0  0  0  0
   -1.0323    0.7500    0.0000 C   0  0  0  0  0  0  0  0  0  0  0  0
   -2.2458    1.6317    0.0000 C   0  0  0  0  0  0  0  0  0  0  0  0
   -3.6161    1.0216    0.0000 C   0  0  0  0  0  0  0  0  0  0  0  0
   -3.9280   -0.4456    0.0000 N   0  0  0  0  0  0  0  0  0  0  0  0
   -5.4198   -0.6024    0.0000 C   0  0  0  0  0  0  0  0  0  0  0  0
   -6.1698   -1.9015    0.0000 C   0  0  0  0  0  0  0  0  0  0  0  0
   -7.6698   -1.9015    0.0000 C   0  0  0  0  0  0  0  0  0  0  0  0
   -8.5515   -3.1150    0.0000 N   0  0  0  0  0  0  0  0  0  0  0  0
   -9.9780   -2.6515    0.0000 C   0  0  0  0  0  0  0  0  0  0  0  0
  -11.1916   -3.5332    0.0000 C   0  0  0  0  0  0  0  0  0  0  0  0
  -11.0348   -5.0249    0.0000 C   0  0  0  0  0  0  0  0  0  0  0  0
  -12.1495   -6.0286    0.0000 N   0  0  0  0  0  0  0  0  0  0  0  0
  -11.5394   -7.3990    0.0000 C   0  0  0  0  0  0  0  0  0  0  0  0
  -12.2894   -8.6980    0.0000 O   0  0  0  0  0  0  0  0  0  0  0  0
  -10.0476   -7.2422    0.0000 C   0  0  0  0  0  0  0  0  0  0  0  0
   -9.0439   -8.3569    0.0000 C   0  0  0  0  0  0  0  0  0  0  0  0
   -9.7357   -5.7749    0.0000 C   0  0  0  0  0  0  0  0  0  0  0  0
   -8.3654   -5.1648    0.0000 C   0  0  0  0  0  0  0  0  0  0  0  0
   -7.1519   -6.0465    0.0000 C   0  0  0  0  0  0  0  0  0  0  0  0
   -9.9780   -1.1515    0.0000 C   0  0  0  0  0  0  0  0  0  0  0  0
  -11.1916   -0.2698    0.0000 C   0  0  0  0  0  0  0  0  0  0  0  0
   -8.5515   -0.6880    0.0000 C   0  0  0  0  0  0  0  0  0  0  0  0
   -8.0879    0.7386    0.0000 C   0  0  0  0  0  0  0  0  0  0  0  0
   -9.0916    1.8533    0.0000 C   0  0  0  0  0  0  0  0  0  0  0  0
   -8.6281    3.2799    0.0000 C   0  0  0  0  0  0  0  0  0  0  0  0
   -7.1609    3.5918    0.0000 O   0  0  0  0  0  0  0  0  0  0  0  0
   -9.4884    4.5087    0.0000 O   0  0  0  0  0  0  0  0  0  0  0  0
   -6.0299    0.7679    0.0000 C   0  0  0  0  0  0  0  0  0  0  0  0
   -7.4971    1.0797    0.0000 C   0  0  0  0  0  0  0  0  0  0  0  0
   -7.9606    2.5063    0.0000 C   0  0  0  0  0  0  0  0  0  0  0  0
   -9.4279    2.8182    0.0000 C   0  0  0  0  0  0  0  0  0  0  0  0
  -10.4315    1.7035    0.0000 O   0  0  0  0  0  0  0  0  0  0  0  0
  -10.0618    4.1776    0.0000 O   0  0  0  0  0  0  0  0  0  0  0  0
   -4.9152    1.7716    0.0000 C   0  0  0  0  0  0  0  0  0  0  0  0
   -5.0720    3.2634    0.0000 C   0  0  0  0  0  0  0  0  0  0  0  0
   -1.0323   -0.7500    0.0000 N   0  0  0  0  0  0  0  0  0  0  0  0
    0.3943   -1.2135    0.0000 C   0  0  0  0  0  0  0  0  0  0  0  0
    0.8578   -2.6401    0.0000 O   0  0  0  0  0  0  0  0  0  0  0  0
  1  2  2  0
  2  3  1  0
  3  4  1  0
  4  5  2  0
  4  6  1  0
  6  7  2  3
  7  8  1  0
  8  9  1  0
  9 10  1  0
 10 11  1  0
 11 12  2  3
 12 13  1  0
 13 14  1  0
 14 15  2  3
 15 16  1  0
 16 17  1  0
 17 18  1  0
 18 19  1  0
 18 20  2  0
 20 21  1  0
 20 22  1  0
 22 23  1  0
 23 24  2  0
 14 25  1  0
 25 26  1  0
 25 27  2  0
 27 28  1  0
 28 29  1  0
 29 30  1  0
 30 31  2  0
 30 32  1  0
 10 33  2  0
 33 34  1  0
 34 35  1  0
 35 36  1  0
 36 37  2  0
 36 38  1  0
 33 39  1  0
 39 40  1  0
  6 41  1  0
 41 42  1  0
 42 43  1  0
 42  3  2  0
 39  8  2  0
 27 12  1  0
 22 16  2  0
M  END
>  <Synonyms>  (297) 
BILIRUBIN|NSC-26685

>  <Research Codes>  (297) 
NSC-26685

>  <Phase>  (297) 
1

>  <Applicants>  (297) 
nan

>  <USAN Stem>  (297) 
nan

>  <USAN Year>  (297) 
nan

>  <USAN Stem Definition>  (297) 
nan

>  <USAN Stem Substem>  (297) 
nan

>  <First Approval>  (297) 
nan

>  <ATC Codes>  (297) 
nan

>  <Level 4 ATC Codes>  (297) 
nan

>  <Level 3 ATC Codes>  (297) 
nan

>  <Level 2 ATC Codes>  (297) 
nan

>  <Level 1 ATC Codes>  (297) 
nan

>  <Indication Class>  (297) 
nan

>  <Patent>  (297) 
nan

>  <Drug Type>  (297) 
1:Synthetic Small Molecule

>  <Passes Rule of Five>  (297) 
False

>  <First In Class>  (297) 
False

>  <Chirality>  (297) 
Achiral Molecule

>  <Prodrug>  (297) 
False

>  <Oral>  (297) 
False

>  <Parenteral>  (297) 
False

>  <Topical>  (297) 
False

>  <Black Box>  (297) 
False

>  <Availability Type>  (297) 
Unknown

>  <Withdrawn Year>  (297) 
nan

>  <Withdrawn Reason>  (297) 
nan

>  <Withdrawn Country>  (297) 
nan

>  <Withdrawn Class>  (297) 
nan

>  <SMILES>  (297) 
C=CC1=C(C)/C(=C/c2[nH]c(Cc3[nH]c(/C=C4\NC(=O)C(C)=C4C=C)c(C)c3CCC(=O)O)c(CCC(=O)O)c2C)NC1=O

>  <InChi Key>  (297) 
AQXXUFZFTHWVFV-UHFFFAOYSA-N

$$$$
CHEMBL203567
     RDKit          2D

 27 29  0  0  0  0  0  0  0  0999 V2000
    2.8273   -5.5793    0.0000 N   0  0  0  0  0  0  0  0  0  0  0  0
    1.3601   -5.2674    0.0000 C   0  0  0  0  0  0  0  0  0  0  0  0
    0.7500   -3.8971    0.0000 C   0  0  0  0  0  0  0  0  0  0  0  0
    1.5000   -2.5981    0.0000 C   0  0  0  0  0  0  0  0  0  0  0  0
    3.0000   -2.5981    0.0000 O   0  0  0  0  0  0  0  0  0  0  0  0
    0.7500   -1.2990    0.0000 C   0  0  0  0  0  0  0  0  0  0  0  0
    1.5000    0.0000    0.0000 C   0  0  0  0  0  0  0  0  0  0  0  0
    0.7500    1.2990    0.0000 C   0  0  0  0  0  0  0  0  0  0  0  0
   -0.7500    1.2990    0.0000 C   0  0  0  0  0  0  0  0  0  0  0  0
   -1.5000    0.0000    0.0000 C   0  0  0  0  0  0  0  0  0  0  0  0
   -3.0000    0.0000    0.0000 O   0  0  0  0  0  0  0  0  0  0  0  0
   -3.7500    1.2990    0.0000 C   0  0  0  0  0  0  0  0  0  0  0  0
   -5.2500    1.2990    0.0000 C   0  0  0  0  0  0  0  0  0  0  0  0
   -6.0000   -0.0000    0.0000 O   0  0  0  0  0  0  0  0  0  0  0  0
   -6.0000    2.5981    0.0000 C   0  0  0  0  0  0  0  0  0  0  0  0
   -7.5000    2.5981    0.0000 O   0  0  0  0  0  0  0  0  0  0  0  0
   -0.7500   -1.2990    0.0000 C   0  0  0  0  0  0  0  0  0  0  0  0
   -0.7418   -4.0539    0.0000 C   0  0  0  0  0  0  0  0  0  0  0  0
   -1.0537   -5.5211    0.0000 N   0  0  0  0  0  0  0  0  0  0  0  0
    0.2454   -6.2711    0.0000 N   0  0  0  0  0  0  0  0  0  0  0  0
    0.4022   -7.7629    0.0000 C   0  0  0  0  0  0  0  0  0  0  0  0
   -0.8113   -8.6446    0.0000 C   0  0  0  0  0  0  0  0  0  0  0  0
   -0.6546  -10.1364    0.0000 C   0  0  0  0  0  0  0  0  0  0  0  0
    0.7158  -10.7465    0.0000 C   0  0  0  0  0  0  0  0  0  0  0  0
    0.8726  -12.2383    0.0000 F   0  0  0  0  0  0  0  0  0  0  0  0
    1.9293   -9.8648    0.0000 C   0  0  0  0  0  0  0  0  0  0  0  0
    1.7725   -8.3730    0.0000 C   0  0  0  0  0  0  0  0  0  0  0  0
  1  2  2  0
  2  3  1  0
  3  4  1  0
  4  5  2  0
  4  6  1  0
  6  7  2  0
  7  8  1  0
  8  9  2  0
  9 10  1  0
 10 11  1  0
 11 12  1  0
 12 13  1  0
 13 14  1  1
 13 15  1  0
 15 16  1  0
 10 17  2  0
  3 18  2  0
 18 19  1  0
 19 20  1  0
 20 21  1  0
 21 22  2  0
 22 23  1  0
 23 24  2  0
 24 25  1  0
 24 26  1  0
 26 27  2  0
 20  2  1  0
 27 21  1  0
 17  6  1  0
M  END
>  <Synonyms>  (298) 
Ro-3201195

>  <Research Codes>  (298) 
Ro-3201195

>  <Phase>  (298) 
1

>  <Applicants>  (298) 
nan

>  <USAN Stem>  (298) 
nan

>  <USAN Year>  (298) 
nan

>  <USAN Stem Definition>  (298) 
nan

>  <USAN Stem Substem>  (298) 
nan

>  <First Approval>  (298) 
nan

>  <ATC Codes>  (298) 
nan

>  <Level 4 ATC Codes>  (298) 
nan

>  <Level 3 ATC Codes>  (298) 
nan

>  <Level 2 ATC Codes>  (298) 
nan

>  <Level 1 ATC Codes>  (298) 
nan

>  <Indication Class>  (298) 
nan

>  <Patent>  (298) 
nan

>  <Drug Type>  (298) 
1:Synthetic Small Molecule

>  <Passes Rule of Five>  (298) 
True

>  <First In Class>  (298) 
False

>  <Chirality>  (298) 
Single Stereoisomer

>  <Prodrug>  (298) 
False

>  <Oral>  (298) 
False

>  <Parenteral>  (298) 
False

>  <Topical>  (298) 
False

>  <Black Box>  (298) 
False

>  <Availability Type>  (298) 
Unknown

>  <Withdrawn Year>  (298) 
nan

>  <Withdrawn Reason>  (298) 
nan

>  <Withdrawn Country>  (298) 
nan

>  <Withdrawn Class>  (298) 
nan

>  <SMILES>  (298) 
Nc1c(C(=O)c2cccc(OC[C@@H](O)CO)c2)cnn1-c1ccc(F)cc1

>  <InChi Key>  (298) 
BEVBBOSLBXTEQD-HNNXBMFYSA-N

$$$$
CHEMBL2057301
     RDKit          2D

 23 26  0  0  0  0  0  0  0  0999 V2000
   -5.2020   -8.5535    0.0000 C   0  0  0  0  0  0  0  0  0  0  0  0
   -4.8901   -7.0863    0.0000 C   0  0  0  0  0  0  0  0  0  0  0  0
   -6.0048   -6.0826    0.0000 O   0  0  0  0  0  0  0  0  0  0  0  0
   -3.4635   -6.6227    0.0000 C   0  0  0  0  0  0  0  0  0  0  0  0
   -2.2500   -7.5044    0.0000 C   0  0  0  0  0  0  0  0  0  0  0  0
   -1.0365   -6.6227    0.0000 C   0  0  0  0  0  0  0  0  0  0  0  0
   -1.5000   -5.1962    0.0000 C   0  0  0  0  0  0  0  0  0  0  0  0
   -0.7500   -3.8971    0.0000 C   0  0  0  0  0  0  0  0  0  0  0  0
    0.7500   -3.8971    0.0000 C   0  0  0  0  0  0  0  0  0  0  0  0
    1.5000   -2.5981    0.0000 C   0  0  0  0  0  0  0  0  0  0  0  0
    0.7500   -1.2990    0.0000 C   0  0  0  0  0  0  0  0  0  0  0  0
    1.5000    0.0000    0.0000 C   0  0  0  0  0  0  0  0  0  0  0  0
    0.7500    1.2990    0.0000 C   0  0  0  0  0  0  0  0  0  0  0  0
    1.5000    2.5981    0.0000 O   0  0  0  0  0  0  0  0  0  0  0  0
   -0.7500    1.2990    0.0000 C   0  0  0  0  0  0  0  0  0  0  0  0
   -1.5000    0.0000    0.0000 C   0  0  0  0  0  0  0  0  0  0  0  0
   -0.7500   -1.2990    0.0000 C   0  0  0  0  0  0  0  0  0  0  0  0
   -2.2500   -1.2990    0.0000 C   0  0  0  0  0  0  0  0  0  0  0  0
   -1.5000   -2.5981    0.0000 C   0  0  0  0  0  0  0  0  0  0  0  0
   -3.0000   -2.5981    0.0000 C   0  0  0  0  0  0  0  0  0  0  0  0
   -3.7500   -3.8971    0.0000 C   0  0  0  0  0  0  0  0  0  0  0  0
   -3.0000   -5.1962    0.0000 C   0  0  0  0  0  0  0  0  0  0  0  0
   -4.4918   -5.3529    0.0000 C   0  0  0  0  0  0  0  0  0  0  0  0
  1  2  1  0
  2  3  2  0
  2  4  1  0
  4  5  1  0
  5  6  1  0
  7  6  1  6
  7  8  1  0
  8  9  1  1
  9 10  1  0
 11 10  1  6
 11 12  1  0
 12 13  1  0
 13 14  1  6
 13 15  1  0
 15 16  1  0
 16 17  1  0
 17 18  1  6
 17 19  1  0
 19 20  1  6
 20 21  1  0
 21 22  1  0
 22 23  1  6
 22  4  1  0
 22  7  1  0
 19  8  1  0
 17 11  1  0
M  END
>  <Synonyms>  (299) 
ALLOPREGNAN-3.BETA.-OL-20-ONE|NSC-97078|SEPRANOLONE|U-0949|UC-1010|UC1010

>  <Research Codes>  (299) 
NSC-97078|U-0949|UC-1010|UC1010

>  <Phase>  (299) 
1

>  <Applicants>  (299) 
nan

>  <USAN Stem>  (299) 
'-olone'

>  <USAN Year>  (299) 
nan

>  <USAN Stem Definition>  (299) 
steroids (not prednisolone derivatives)

>  <USAN Stem Substem>  (299) 
'-olone(-olone)'

>  <First Approval>  (299) 
nan

>  <ATC Codes>  (299) 
nan

>  <Level 4 ATC Codes>  (299) 
nan

>  <Level 3 ATC Codes>  (299) 
nan

>  <Level 2 ATC Codes>  (299) 
nan

>  <Level 1 ATC Codes>  (299) 
nan

>  <Indication Class>  (299) 
nan

>  <Patent>  (299) 
nan

>  <Drug Type>  (299) 
7:Natural Product-derived

>  <Passes Rule of Five>  (299) 
True

>  <First In Class>  (299) 
False

>  <Chirality>  (299) 
Single Stereoisomer

>  <Prodrug>  (299) 
False

>  <Oral>  (299) 
False

>  <Parenteral>  (299) 
False

>  <Topical>  (299) 
False

>  <Black Box>  (299) 
False

>  <Availability Type>  (299) 
Unknown

>  <Withdrawn Year>  (299) 
nan

>  <Withdrawn Reason>  (299) 
nan

>  <Withdrawn Country>  (299) 
nan

>  <Withdrawn Class>  (299) 
nan

>  <SMILES>  (299) 
CC(=O)[C@H]1CC[C@H]2[C@@H]3CC[C@H]4C[C@@H](O)CC[C@]4(C)[C@H]3CC[C@]12C

>  <InChi Key>  (299) 
AURFZBICLPNKBZ-IAAUGMCOSA-N

$$$$
CHEMBL1254709
     RDKit          2D

 35 39  0  0  0  0  0  0  0  0999 V2000
    3.0000    0.0000    0.0000 Cl  0  0  0  0  0  0  0  0  0  0  0  0
    1.5000    0.0000    0.0000 C   0  0  0  0  0  0  0  0  0  0  0  0
    0.7500   -1.2990    0.0000 C   0  0  0  0  0  0  0  0  0  0  0  0
   -0.7500   -1.2990    0.0000 C   0  0  0  0  0  0  0  0  0  0  0  0
   -1.5000    0.0000    0.0000 C   0  0  0  0  0  0  0  0  0  0  0  0
   -3.0000    0.0000    0.0000 C   0  0  0  0  0  0  0  0  0  0  0  0
   -3.7500   -1.2990    0.0000 N   0  0  0  0  0  0  0  0  0  0  0  0
   -5.2500   -1.2990    0.0000 C   0  0  0  0  0  0  0  0  0  0  0  0
   -6.0000   -2.5981    0.0000 C   0  0  0  0  0  0  0  0  0  0  0  0
   -7.5000   -2.5981    0.0000 C   0  0  0  0  0  0  0  0  0  0  0  0
   -8.2500   -3.8971    0.0000 N   0  0  0  0  0  0  0  0  0  0  0  0
   -9.7500   -3.8971    0.0000 C   0  0  0  0  0  0  0  0  0  0  0  0
  -10.5000   -5.1962    0.0000 C   0  0  0  0  0  0  0  0  0  0  0  0
   -9.7500   -6.4952    0.0000 C   0  0  0  0  0  0  0  0  0  0  0  0
  -10.5000   -7.7942    0.0000 N   0  0  0  0  0  0  0  0  0  0  0  0
  -12.0000   -7.7942    0.0000 C   0  0  0  0  0  0  0  0  0  0  0  0
  -12.7500   -9.0933    0.0000 C   0  0  0  0  0  0  0  0  0  0  0  0
  -14.2500   -9.0933    0.0000 C   0  0  0  0  0  0  0  0  0  0  0  0
  -15.0000  -10.3923    0.0000 C   0  0  0  0  0  0  0  0  0  0  0  0
  -14.2500  -11.6913    0.0000 C   0  0  0  0  0  0  0  0  0  0  0  0
  -12.7500  -11.6913    0.0000 C   0  0  0  0  0  0  0  0  0  0  0  0
  -12.0000  -10.3923    0.0000 N   0  0  0  0  0  0  0  0  0  0  0  0
  -12.7500   -6.4952    0.0000 C   0  0  0  0  0  0  0  0  0  0  0  0
  -12.0000   -5.1962    0.0000 C   0  0  0  0  0  0  0  0  0  0  0  0
  -12.7500   -3.8971    0.0000 C   0  0  0  0  0  0  0  0  0  0  0  0
  -14.2500   -3.8971    0.0000 C   0  0  0  0  0  0  0  0  0  0  0  0
  -15.0000   -5.1962    0.0000 C   0  0  0  0  0  0  0  0  0  0  0  0
  -14.2500   -6.4952    0.0000 N   0  0  0  0  0  0  0  0  0  0  0  0
   -8.2500   -6.4952    0.0000 C   0  0  0  0  0  0  0  0  0  0  0  0
   -7.5000   -5.1962    0.0000 C   0  0  0  0  0  0  0  0  0  0  0  0
   -3.7500    1.2990    0.0000 C   0  0  0  0  0  0  0  0  0  0  0  0
   -3.0000    2.5981    0.0000 C   0  0  0  0  0  0  0  0  0  0  0  0
   -1.5000    2.5981    0.0000 N   0  0  0  0  0  0  0  0  0  0  0  0
   -0.7500    1.2990    0.0000 C   0  0  0  0  0  0  0  0  0  0  0  0
    0.7500    1.2990    0.0000 C   0  0  0  0  0  0  0  0  0  0  0  0
  1  2  1  0
  2  3  2  0
  3  4  1  0
  4  5  2  0
  5  6  1  0
  6  7  2  3
  7  8  1  0
  8  9  1  0
  9 10  1  0
 10 11  1  0
 11 12  1  0
 12 13  1  0
 13 14  1  0
 14 15  1  0
 15 16  1  0
 16 17  1  0
 17 18  2  0
 18 19  1  0
 19 20  2  0
 20 21  1  0
 21 22  2  0
 16 23  1  0
 23 24  2  0
 24 25  1  0
 25 26  2  0
 26 27  1  0
 27 28  2  0
 14 29  1  0
 29 30  1  0
  6 31  1  0
 31 32  2  0
 32 33  1  0
 33 34  1  0
 34 35  2  0
 35  2  1  0
 34  5  1  0
 30 11  1  0
 22 17  1  0
 28 23  1  0
M  END
>  <Synonyms>  (300) 
DM-1157|DM1157|PL-69|PL69

>  <Research Codes>  (300) 
DM1157|PL-69|PL69

>  <Phase>  (300) 
1

>  <Applicants>  (300) 
nan

>  <USAN Stem>  (300) 
nan

>  <USAN Year>  (300) 
nan

>  <USAN Stem Definition>  (300) 
nan

>  <USAN Stem Substem>  (300) 
nan

>  <First Approval>  (300) 
nan

>  <ATC Codes>  (300) 
nan

>  <Level 4 ATC Codes>  (300) 
nan

>  <Level 3 ATC Codes>  (300) 
nan

>  <Level 2 ATC Codes>  (300) 
nan

>  <Level 1 ATC Codes>  (300) 
nan

>  <Indication Class>  (300) 
nan

>  <Patent>  (300) 
nan

>  <Drug Type>  (300) 
1:Synthetic Small Molecule

>  <Passes Rule of Five>  (300) 
False

>  <First In Class>  (300) 
False

>  <Chirality>  (300) 
Achiral Molecule

>  <Prodrug>  (300) 
False

>  <Oral>  (300) 
False

>  <Parenteral>  (300) 
False

>  <Topical>  (300) 
False

>  <Black Box>  (300) 
False

>  <Availability Type>  (300) 
Unknown

>  <Withdrawn Year>  (300) 
nan

>  <Withdrawn Reason>  (300) 
nan

>  <Withdrawn Country>  (300) 
nan

>  <Withdrawn Class>  (300) 
nan

>  <SMILES>  (300) 
Clc1ccc2c(NCCCN3CCC(NC(c4ccccn4)c4ccccn4)CC3)ccnc2c1

>  <InChi Key>  (300) 
QRCZXFIANKOFOR-UHFFFAOYSA-N

$$$$
CHEMBL2158051
     RDKit          2D

 41 44  0  0  0  0  0  0  0  0999 V2000
   -8.8138    3.3283    0.0000 C   0  0  0  0  0  0  0  0  0  0  0  0
   -7.3184    3.2106    0.0000 N   0  0  0  0  0  0  0  0  0  0  0  0
   -6.4688    4.4468    0.0000 C   0  0  0  0  0  0  0  0  0  0  0  0
   -7.1146    5.8007    0.0000 C   0  0  0  0  0  0  0  0  0  0  0  0
   -4.9735    4.3291    0.0000 C   0  0  0  0  0  0  0  0  0  0  0  0
   -4.1239    5.5653    0.0000 O   0  0  0  0  0  0  0  0  0  0  0  0
   -4.3277    2.9753    0.0000 N   0  0  0  0  0  0  0  0  0  0  0  0
   -2.8323    2.8576    0.0000 C   0  0  0  0  0  0  0  0  0  0  0  0
   -2.1513    4.1941    0.0000 C   0  0  0  0  0  0  0  0  0  0  0  0
   -0.7248    4.6576    0.0000 N   0  0  0  0  0  0  0  0  0  0  0  0
   -0.6071    6.1530    0.0000 C   0  0  0  0  0  0  0  0  0  0  0  0
   -1.8433    7.0026    0.0000 O   0  0  0  0  0  0  0  0  0  0  0  0
    0.7468    6.7987    0.0000 C   0  0  0  0  0  0  0  0  0  0  0  0
    0.8645    8.2941    0.0000 C   0  0  0  0  0  0  0  0  0  0  0  0
    2.2184    8.9399    0.0000 C   0  0  0  0  0  0  0  0  0  0  0  0
   -0.3717    9.1437    0.0000 C   0  0  0  0  0  0  0  0  0  0  0  0
    0.6118    3.9766    0.0000 C   0  0  0  0  0  0  0  0  0  0  0  0
    1.0753    2.5500    0.0000 C   0  0  0  0  0  0  0  0  0  0  0  0
    0.3943    1.2135    0.0000 C   0  0  0  0  0  0  0  0  0  0  0  0
    1.2760    0.0000    0.0000 C   0  0  0  0  0  0  0  0  0  0  0  0
    0.3943   -1.2135    0.0000 C   0  0  0  0  0  0  0  0  0  0  0  0
   -1.0323   -0.7500    0.0000 C   0  0  0  0  0  0  0  0  0  0  0  0
   -2.2458   -1.6317    0.0000 C   0  0  0  0  0  0  0  0  0  0  0  0
   -3.6161   -1.0216    0.0000 O   0  0  0  0  0  0  0  0  0  0  0  0
   -2.0890   -3.1235    0.0000 N   0  0  0  0  0  0  0  0  0  0  0  0
   -3.3025   -4.0051    0.0000 C   0  0  0  0  0  0  0  0  0  0  0  0
   -3.1458   -5.4969    0.0000 C   0  0  0  0  0  0  0  0  0  0  0  0
   -4.3593   -6.3786    0.0000 C   0  0  0  0  0  0  0  0  0  0  0  0
   -4.2025   -7.8704    0.0000 C   0  0  0  0  0  0  0  0  0  0  0  0
   -2.8322   -8.4805    0.0000 C   0  0  0  0  0  0  0  0  0  0  0  0
   -1.6186   -7.5988    0.0000 C   0  0  0  0  0  0  0  0  0  0  0  0
   -1.7754   -6.1070    0.0000 C   0  0  0  0  0  0  0  0  0  0  0  0
   -4.6729   -3.3950    0.0000 C   0  0  0  0  0  0  0  0  0  0  0  0
   -4.8297   -1.9033    0.0000 C   0  0  0  0  0  0  0  0  0  0  0  0
   -6.2000   -1.2931    0.0000 C   0  0  0  0  0  0  0  0  0  0  0  0
   -7.4135   -2.1748    0.0000 C   0  0  0  0  0  0  0  0  0  0  0  0
   -7.2567   -3.6666    0.0000 C   0  0  0  0  0  0  0  0  0  0  0  0
   -5.8864   -4.2767    0.0000 C   0  0  0  0  0  0  0  0  0  0  0  0
   -1.0323    0.7500    0.0000 N   0  0  0  0  0  0  0  0  0  0  0  0
   -2.3688    1.4310    0.0000 C   0  0  0  0  0  0  0  0  0  0  0  0
   -3.5094    0.4568    0.0000 O   0  0  0  0  0  0  0  0  0  0  0  0
  1  2  1  0
  2  3  1  0
  3  4  1  0
  3  5  1  0
  5  6  2  0
  5  7  1  0
  7  8  1  0
  8  9  1  0
  9 10  1  0
 10 11  1  0
 11 12  2  0
 11 13  1  0
 13 14  1  0
 14 15  1  0
 14 16  1  0
 10 17  1  0
 17 18  1  0
 19 18  1  1
 19 20  1  0
 20 21  1  0
 21 22  1  0
 22 23  1  0
 23 24  2  0
 23 25  1  0
 25 26  1  0
 26 27  1  0
 27 28  2  0
 28 29  1  0
 29 30  2  0
 30 31  1  0
 31 32  2  0
 26 33  1  0
 33 34  2  0
 34 35  1  0
 35 36  2  0
 36 37  1  0
 37 38  2  0
 22 39  1  0
 39 40  1  0
 40 41  2  0
 40  8  1  0
 39 19  1  0
 32 27  1  0
 38 33  1  0
M  END
>  <Synonyms>  (301) 
AT-406|DEBIO 1143|DEBIO-1143|IAP INHIBITOR AT-406

>  <Research Codes>  (301) 
AT-406|DEBIO-1143|IAP INHIBITOR AT-406

>  <Phase>  (301) 
1

>  <Applicants>  (301) 
nan

>  <USAN Stem>  (301) 
nan

>  <USAN Year>  (301) 
nan

>  <USAN Stem Definition>  (301) 
nan

>  <USAN Stem Substem>  (301) 
nan

>  <First Approval>  (301) 
nan

>  <ATC Codes>  (301) 
nan

>  <Level 4 ATC Codes>  (301) 
nan

>  <Level 3 ATC Codes>  (301) 
nan

>  <Level 2 ATC Codes>  (301) 
nan

>  <Level 1 ATC Codes>  (301) 
nan

>  <Indication Class>  (301) 
nan

>  <Patent>  (301) 
nan

>  <Drug Type>  (301) 
1:Synthetic Small Molecule

>  <Passes Rule of Five>  (301) 
False

>  <First In Class>  (301) 
False

>  <Chirality>  (301) 
Single Stereoisomer

>  <Prodrug>  (301) 
False

>  <Oral>  (301) 
False

>  <Parenteral>  (301) 
False

>  <Topical>  (301) 
False

>  <Black Box>  (301) 
False

>  <Availability Type>  (301) 
Unknown

>  <Withdrawn Year>  (301) 
nan

>  <Withdrawn Reason>  (301) 
nan

>  <Withdrawn Country>  (301) 
nan

>  <Withdrawn Class>  (301) 
nan

>  <SMILES>  (301) 
CN[C@@H](C)C(=O)N[C@H]1CN(C(=O)CC(C)C)CC[C@H]2CC[C@@H](C(=O)NC(c3ccccc3)c3ccccc3)N2C1=O

>  <InChi Key>  (301) 
LSXUTRRVVSPWDZ-FNYVXXLRSA-N

$$$$
CHEMBL602070
     RDKit          2D

 32 36  0  0  0  0  0  0  0  0999 V2000
   -2.9499    4.2246    0.0000 C   0  0  0  0  0  0  0  0  0  0  0  0
   -1.8351    3.2209    0.0000 C   0  0  0  0  0  0  0  0  0  0  0  0
   -0.4086    3.6844    0.0000 C   0  0  0  0  0  0  0  0  0  0  0  0
   -0.0967    5.1517    0.0000 C   0  0  0  0  0  0  0  0  0  0  0  0
    1.3299    5.6152    0.0000 O   0  0  0  0  0  0  0  0  0  0  0  0
   -1.2114    6.1554    0.0000 N   0  0  0  0  0  0  0  0  0  0  0  0
   -2.6786    5.8435    0.0000 C   0  0  0  0  0  0  0  0  0  0  0  0
   -3.4286    7.1425    0.0000 C   0  0  0  0  0  0  0  0  0  0  0  0
   -2.4249    8.2572    0.0000 C   0  0  0  0  0  0  0  0  0  0  0  0
   -1.0546    7.6471    0.0000 C   0  0  0  0  0  0  0  0  0  0  0  0
    0.2444    8.3971    0.0000 C   0  0  0  0  0  0  0  0  0  0  0  0
    1.5435    7.6471    0.0000 C   0  0  0  0  0  0  0  0  0  0  0  0
    2.8425    8.3971    0.0000 C   0  0  0  0  0  0  0  0  0  0  0  0
    2.8425    9.8971    0.0000 C   0  0  0  0  0  0  0  0  0  0  0  0
    4.1415   10.6471    0.0000 F   0  0  0  0  0  0  0  0  0  0  0  0
    1.5435   10.6471    0.0000 C   0  0  0  0  0  0  0  0  0  0  0  0
    0.2444    9.8971    0.0000 C   0  0  0  0  0  0  0  0  0  0  0  0
    0.7062    2.6807    0.0000 C   0  0  0  0  0  0  0  0  0  0  0  0
    2.1328    3.1443    0.0000 C   0  0  0  0  0  0  0  0  0  0  0  0
    3.2475    2.1406    0.0000 C   0  0  0  0  0  0  0  0  0  0  0  0
    4.6741    2.6041    0.0000 C   0  0  0  0  0  0  0  0  0  0  0  0
    4.9859    4.0713    0.0000 C   0  0  0  0  0  0  0  0  0  0  0  0
    6.4125    4.5348    0.0000 Cl  0  0  0  0  0  0  0  0  0  0  0  0
    3.8712    5.0750    0.0000 C   0  0  0  0  0  0  0  0  0  0  0  0
    4.1831    6.5422    0.0000 Cl  0  0  0  0  0  0  0  0  0  0  0  0
    2.4446    4.6115    0.0000 C   0  0  0  0  0  0  0  0  0  0  0  0
    0.3943    1.2135    0.0000 N   0  0  0  0  0  0  0  0  0  0  0  0
    1.2760    0.0000    0.0000 N   0  0  0  0  0  0  0  0  0  0  0  0
    0.3943   -1.2135    0.0000 C   0  0  0  0  0  0  0  0  0  0  0  0
   -1.0323   -0.7500    0.0000 C   0  0  0  0  0  0  0  0  0  0  0  0
   -1.0323    0.7500    0.0000 C   0  0  0  0  0  0  0  0  0  0  0  0
   -2.1470    1.7537    0.0000 N   0  0  0  0  0  0  0  0  0  0  0  0
  1  2  1  0
  2  3  1  0
  3  4  1  0
  4  5  2  0
  4  6  1  0
  6  7  1  0
  7  8  1  0
  8  9  1  0
  9 10  1  0
 10 11  1  1
 11 12  2  0
 12 13  1  0
 13 14  2  0
 14 15  1  0
 14 16  1  0
 16 17  2  0
  3 18  1  0
 18 19  1  1
 19 20  2  0
 20 21  1  0
 21 22  2  0
 22 23  1  0
 22 24  1  0
 24 25  1  0
 24 26  2  0
 18 27  1  0
 27 28  1  0
 28 29  2  0
 29 30  1  0
 30 31  2  0
 31 32  1  0
 32  2  2  0
 10  6  1  0
 17 11  1  0
 26 19  1  0
 31 27  1  0
M  END
>  <Synonyms>  (302) 
BMS-394136

>  <Research Codes>  (302) 
nan

>  <Phase>  (302) 
1

>  <Applicants>  (302) 
nan

>  <USAN Stem>  (302) 
nan

>  <USAN Year>  (302) 
nan

>  <USAN Stem Definition>  (302) 
nan

>  <USAN Stem Substem>  (302) 
nan

>  <First Approval>  (302) 
nan

>  <ATC Codes>  (302) 
nan

>  <Level 4 ATC Codes>  (302) 
nan

>  <Level 3 ATC Codes>  (302) 
nan

>  <Level 2 ATC Codes>  (302) 
nan

>  <Level 1 ATC Codes>  (302) 
nan

>  <Indication Class>  (302) 
nan

>  <Patent>  (302) 
nan

>  <Drug Type>  (302) 
1:Synthetic Small Molecule

>  <Passes Rule of Five>  (302) 
False

>  <First In Class>  (302) 
False

>  <Chirality>  (302) 
Single Stereoisomer

>  <Prodrug>  (302) 
False

>  <Oral>  (302) 
False

>  <Parenteral>  (302) 
False

>  <Topical>  (302) 
False

>  <Black Box>  (302) 
False

>  <Availability Type>  (302) 
Unknown

>  <Withdrawn Year>  (302) 
nan

>  <Withdrawn Reason>  (302) 
nan

>  <Withdrawn Country>  (302) 
nan

>  <Withdrawn Class>  (302) 
nan

>  <SMILES>  (302) 
CC1=C(C(=O)N2CCC[C@H]2c2ccc(F)cc2)[C@@H](c2ccc(Cl)c(Cl)c2)n2nccc2N1

>  <InChi Key>  (302) 
HLUPWWBAEWIMAO-XLSWHLDHSA-N

$$$$
CHEMBL504535
     RDKit          2D

 26 28  0  0  0  0  0  0  0  0999 V2000
    6.2011   -6.9341    0.0000 C   0  0  0  0  0  0  0  0  0  0  0  0
    4.8308   -6.3240    0.0000 C   0  0  0  0  0  0  0  0  0  0  0  0
    4.6740   -4.8322    0.0000 C   0  0  0  0  0  0  0  0  0  0  0  0
    3.3037   -4.2221    0.0000 N   0  0  0  0  0  0  0  0  0  0  0  0
    2.9918   -2.7549    0.0000 C   0  0  0  0  0  0  0  0  0  0  0  0
    1.5000   -2.5981    0.0000 C   0  0  0  0  0  0  0  0  0  0  0  0
    0.7500   -1.2990    0.0000 C   0  0  0  0  0  0  0  0  0  0  0  0
    1.5000    0.0000    0.0000 C   0  0  0  0  0  0  0  0  0  0  0  0
    0.7500    1.2990    0.0000 C   0  0  0  0  0  0  0  0  0  0  0  0
   -0.7500    1.2990    0.0000 C   0  0  0  0  0  0  0  0  0  0  0  0
   -1.5000    2.5981    0.0000 S   0  0  0  0  0  0  0  0  0  0  0  0
   -2.2500    3.8971    0.0000 C   0  0  0  0  0  0  0  0  0  0  0  0
   -2.7990    1.8481    0.0000 O   0  0  0  0  0  0  0  0  0  0  0  0
   -0.2010    3.3481    0.0000 O   0  0  0  0  0  0  0  0  0  0  0  0
   -1.5000    0.0000    0.0000 C   0  0  0  0  0  0  0  0  0  0  0  0
   -0.7500   -1.2990    0.0000 C   0  0  0  0  0  0  0  0  0  0  0  0
    0.8899   -3.9684    0.0000 C   0  0  0  0  0  0  0  0  0  0  0  0
   -0.5773   -4.2803    0.0000 C   0  0  0  0  0  0  0  0  0  0  0  0
   -1.5810   -3.1655    0.0000 C   0  0  0  0  0  0  0  0  0  0  0  0
   -3.0482   -3.4774    0.0000 C   0  0  0  0  0  0  0  0  0  0  0  0
   -3.5118   -4.9040    0.0000 C   0  0  0  0  0  0  0  0  0  0  0  0
   -4.9790   -5.2159    0.0000 C   0  0  0  0  0  0  0  0  0  0  0  0
   -2.5081   -6.0187    0.0000 C   0  0  0  0  0  0  0  0  0  0  0  0
   -1.0409   -5.7068    0.0000 C   0  0  0  0  0  0  0  0  0  0  0  0
    2.0046   -4.9721    0.0000 C   0  0  0  0  0  0  0  0  0  0  0  0
    1.8478   -6.4639    0.0000 O   0  0  0  0  0  0  0  0  0  0  0  0
  1  2  1  0
  2  3  1  0
  3  4  1  0
  4  5  1  0
  5  6  2  0
  6  7  1  0
  7  8  2  0
  8  9  1  0
  9 10  2  0
 10 11  1  0
 11 12  1  0
 11 13  2  0
 11 14  2  0
 10 15  1  0
 15 16  2  0
  6 17  1  0
 17 18  1  0
 18 19  2  0
 19 20  1  0
 20 21  2  0
 21 22  1  0
 21 23  1  0
 23 24  2  0
 17 25  2  0
 25 26  1  0
 25  4  1  0
 16  7  1  0
 24 18  1  0
M  END
>  <Synonyms>  (303) 
BAP-909|IMRECOXIB

>  <Research Codes>  (303) 
BAP-909

>  <Phase>  (303) 
1

>  <Applicants>  (303) 
nan

>  <USAN Stem>  (303) 
'-coxib'

>  <USAN Year>  (303) 
nan

>  <USAN Stem Definition>  (303) 
cyclooxygenase-2 inhibitors

>  <USAN Stem Substem>  (303) 
'-coxib(-coxib)'

>  <First Approval>  (303) 
nan

>  <ATC Codes>  (303) 
nan

>  <Level 4 ATC Codes>  (303) 
nan

>  <Level 3 ATC Codes>  (303) 
nan

>  <Level 2 ATC Codes>  (303) 
nan

>  <Level 1 ATC Codes>  (303) 
nan

>  <Indication Class>  (303) 
nan

>  <Patent>  (303) 
nan

>  <Drug Type>  (303) 
1:Synthetic Small Molecule

>  <Passes Rule of Five>  (303) 
True

>  <First In Class>  (303) 
False

>  <Chirality>  (303) 
Achiral Molecule

>  <Prodrug>  (303) 
False

>  <Oral>  (303) 
False

>  <Parenteral>  (303) 
False

>  <Topical>  (303) 
False

>  <Black Box>  (303) 
False

>  <Availability Type>  (303) 
Unknown

>  <Withdrawn Year>  (303) 
nan

>  <Withdrawn Reason>  (303) 
nan

>  <Withdrawn Country>  (303) 
nan

>  <Withdrawn Class>  (303) 
nan

>  <SMILES>  (303) 
CCCN1CC(c2ccc(S(C)(=O)=O)cc2)=C(c2ccc(C)cc2)C1=O

>  <InChi Key>  (303) 
QZCDEIDTIDADDX-UHFFFAOYSA-N

$$$$
CHEMBL1436376
     RDKit          2D

 35 38  0  0  0  0  0  0  0  0999 V2000
    6.3971   -8.6463    0.0000 C   0  0  0  0  0  0  0  0  0  0  0  0
    7.3323   -7.4735    0.0000 O   0  0  0  0  0  0  0  0  0  0  0  0
    6.7843   -6.0772    0.0000 C   0  0  0  0  0  0  0  0  0  0  0  0
    5.3011   -5.8537    0.0000 C   0  0  0  0  0  0  0  0  0  0  0  0
    4.7530   -4.4574    0.0000 C   0  0  0  0  0  0  0  0  0  0  0  0
    5.6883   -3.2846    0.0000 C   0  0  0  0  0  0  0  0  0  0  0  0
    5.1403   -1.8883    0.0000 C   0  0  0  0  0  0  0  0  0  0  0  0
    6.0755   -0.7155    0.0000 C   0  0  0  0  0  0  0  0  0  0  0  0
    5.5275    0.6808    0.0000 N   0  0  0  0  0  0  0  0  0  0  0  0
    6.4627    1.8535    0.0000 C   0  0  0  0  0  0  0  0  0  0  0  0
    5.9147    3.2498    0.0000 C   0  0  0  0  0  0  0  0  0  0  0  0
    4.4315    3.4734    0.0000 C   0  0  0  0  0  0  0  0  0  0  0  0
    3.4962    2.3006    0.0000 C   0  0  0  0  0  0  0  0  0  0  0  0
    2.0130    2.5242    0.0000 C   0  0  0  0  0  0  0  0  0  0  0  0
    1.0777    1.3515    0.0000 N   0  0  0  0  0  0  0  0  0  0  0  0
    1.7286    0.0000    0.0000 C   0  0  0  0  0  0  0  0  0  0  0  0
    1.0777   -1.3515    0.0000 C   0  0  0  0  0  0  0  0  0  0  0  0
   -0.3846   -1.6852    0.0000 C   0  0  0  0  0  0  0  0  0  0  0  0
   -0.6082   -3.1685    0.0000 C   0  0  0  0  0  0  0  0  0  0  0  0
   -2.0045   -3.7165    0.0000 C   0  0  0  0  0  0  0  0  0  0  0  0
   -2.2281   -5.1997    0.0000 O   0  0  0  0  0  0  0  0  0  0  0  0
   -3.6244   -5.7478    0.0000 C   0  0  0  0  0  0  0  0  0  0  0  0
   -3.1773   -2.7813    0.0000 C   0  0  0  0  0  0  0  0  0  0  0  0
   -4.5736   -3.3293    0.0000 O   0  0  0  0  0  0  0  0  0  0  0  0
   -5.7463   -2.3940    0.0000 C   0  0  0  0  0  0  0  0  0  0  0  0
   -2.9537   -1.2980    0.0000 C   0  0  0  0  0  0  0  0  0  0  0  0
   -1.5574   -0.7500    0.0000 C   0  0  0  0  0  0  0  0  0  0  0  0
   -1.5574    0.7500    0.0000 C   0  0  0  0  0  0  0  0  0  0  0  0
   -0.3846    1.6852    0.0000 C   0  0  0  0  0  0  0  0  0  0  0  0
   -0.7184    3.1476    0.0000 O   0  0  0  0  0  0  0  0  0  0  0  0
    4.0442    0.9043    0.0000 C   0  0  0  0  0  0  0  0  0  0  0  0
    7.1715   -3.5082    0.0000 C   0  0  0  0  0  0  0  0  0  0  0  0
    7.7195   -4.9045    0.0000 C   0  0  0  0  0  0  0  0  0  0  0  0
    9.2028   -5.1280    0.0000 O   0  0  0  0  0  0  0  0  0  0  0  0
   10.1380   -3.9553    0.0000 C   0  0  0  0  0  0  0  0  0  0  0  0
  1  2  1  0
  2  3  1  0
  3  4  2  0
  4  5  1  0
  5  6  2  0
  6  7  1  0
  7  8  1  0
  8  9  1  0
  9 10  1  0
 10 11  1  0
 11 12  1  0
 12 13  1  0
 13 14  1  1
 14 15  1  0
 15 16  1  0
 16 17  1  0
 17 18  1  0
 18 19  2  0
 19 20  1  0
 20 21  1  0
 21 22  1  0
 20 23  2  0
 23 24  1  0
 24 25  1  0
 23 26  1  0
 26 27  2  0
 27 28  1  0
 28 29  1  0
 29 30  2  0
 13 31  1  0
  6 32  1  0
 32 33  2  0
 33 34  1  0
 34 35  1  0
 33  3  1  0
 31  9  1  0
 29 15  1  0
 27 18  1  0
M  END
>  <Synonyms>  (304) 
CILOBRADINE

>  <Research Codes>  (304) 
nan

>  <Phase>  (304) 
1

>  <Applicants>  (304) 
nan

>  <USAN Stem>  (304) 
nan

>  <USAN Year>  (304) 
nan

>  <USAN Stem Definition>  (304) 
nan

>  <USAN Stem Substem>  (304) 
nan

>  <First Approval>  (304) 
nan

>  <ATC Codes>  (304) 
nan

>  <Level 4 ATC Codes>  (304) 
nan

>  <Level 3 ATC Codes>  (304) 
nan

>  <Level 2 ATC Codes>  (304) 
nan

>  <Level 1 ATC Codes>  (304) 
nan

>  <Indication Class>  (304) 
nan

>  <Patent>  (304) 
nan

>  <Drug Type>  (304) 
1:Synthetic Small Molecule

>  <Passes Rule of Five>  (304) 
True

>  <First In Class>  (304) 
False

>  <Chirality>  (304) 
Single Stereoisomer

>  <Prodrug>  (304) 
False

>  <Oral>  (304) 
False

>  <Parenteral>  (304) 
False

>  <Topical>  (304) 
False

>  <Black Box>  (304) 
False

>  <Availability Type>  (304) 
Unknown

>  <Withdrawn Year>  (304) 
nan

>  <Withdrawn Reason>  (304) 
nan

>  <Withdrawn Country>  (304) 
nan

>  <Withdrawn Class>  (304) 
nan

>  <SMILES>  (304) 
COc1ccc(CCN2CCC[C@H](CN3CCc4cc(OC)c(OC)cc4CC3=O)C2)cc1OC

>  <InChi Key>  (304) 
OBUFMJDDZTXJPY-NRFANRHFSA-N

$$$$
CHEMBL2181776
     RDKit          2D

 42 47  0  0  0  0  0  0  0  0999 V2000
   -2.6401   -3.1891    0.0000 C   0  0  0  0  0  0  0  0  0  0  0  0
   -1.2135   -2.7256    0.0000 N   0  0  0  0  0  0  0  0  0  0  0  0
   -0.0000   -3.6073    0.0000 C   0  0  0  0  0  0  0  0  0  0  0  0
   -0.0000   -5.1073    0.0000 C   0  0  0  0  0  0  0  0  0  0  0  0
   -1.2990   -5.8573    0.0000 C   0  0  0  0  0  0  0  0  0  0  0  0
   -1.2990   -7.3573    0.0000 C   0  0  0  0  0  0  0  0  0  0  0  0
   -0.0000   -8.1073    0.0000 C   0  0  0  0  0  0  0  0  0  0  0  0
    1.2990   -7.3573    0.0000 C   0  0  0  0  0  0  0  0  0  0  0  0
    1.2990   -5.8573    0.0000 N   0  0  0  0  0  0  0  0  0  0  0  0
    1.2135   -2.7256    0.0000 C   0  0  0  0  0  0  0  0  0  0  0  0
    2.6401   -3.1891    0.0000 C   0  0  0  0  0  0  0  0  0  0  0  0
    3.8536   -2.3075    0.0000 C   0  0  0  0  0  0  0  0  0  0  0  0
    5.0672   -3.1891    0.0000 C   0  0  0  0  0  0  0  0  0  0  0  0
    4.6036   -4.6157    0.0000 C   0  0  0  0  0  0  0  0  0  0  0  0
    3.1036   -4.6157    0.0000 C   0  0  0  0  0  0  0  0  0  0  0  0
    0.7500   -1.2990    0.0000 C   0  0  0  0  0  0  0  0  0  0  0  0
    1.5000    0.0000    0.0000 C   0  0  0  0  0  0  0  0  0  0  0  0
    0.7500    1.2990    0.0000 C   0  0  0  0  0  0  0  0  0  0  0  0
   -0.7500    1.2990    0.0000 C   0  0  0  0  0  0  0  0  0  0  0  0
   -1.5000    2.5981    0.0000 C   0  0  0  0  0  0  0  0  0  0  0  0
   -3.0000    2.5981    0.0000 O   0  0  0  0  0  0  0  0  0  0  0  0
   -0.7500    3.8971    0.0000 N   0  0  0  0  0  0  0  0  0  0  0  0
   -1.5000    5.1962    0.0000 C   0  0  0  0  0  0  0  0  0  0  0  0
   -0.2010    5.9462    0.0000 C   0  0  0  0  0  0  0  0  0  0  0  0
    1.0981    5.1962    0.0000 O   0  0  0  0  0  0  0  0  0  0  0  0
   -0.2010    7.4462    0.0000 N   0  0  0  0  0  0  0  0  0  0  0  0
    1.0981    8.1962    0.0000 C   0  0  0  0  0  0  0  0  0  0  0  0
    1.0981    9.6962    0.0000 C   0  0  0  0  0  0  0  0  0  0  0  0
    2.3971   10.4462    0.0000 C   0  0  0  0  0  0  0  0  0  0  0  0
    3.6962    9.6962    0.0000 C   0  0  0  0  0  0  0  0  0  0  0  0
    4.9952   10.4462    0.0000 C   0  0  0  0  0  0  0  0  0  0  0  0
    4.9952   11.9462    0.0000 C   0  0  0  0  0  0  0  0  0  0  0  0
    6.2942   12.6962    0.0000 C   0  0  0  0  0  0  0  0  0  0  0  0
    7.5933   11.9462    0.0000 O   0  0  0  0  0  0  0  0  0  0  0  0
    6.2942   14.1962    0.0000 O   0  0  0  0  0  0  0  0  0  0  0  0
    3.6962    8.1962    0.0000 C   0  0  0  0  0  0  0  0  0  0  0  0
    2.3971    7.4462    0.0000 C   0  0  0  0  0  0  0  0  0  0  0  0
   -2.7990    4.4462    0.0000 C   0  0  0  0  0  0  0  0  0  0  0  0
   -3.5490    5.7452    0.0000 C   0  0  0  0  0  0  0  0  0  0  0  0
   -2.2500    6.4952    0.0000 C   0  0  0  0  0  0  0  0  0  0  0  0
   -1.5000    0.0000    0.0000 C   0  0  0  0  0  0  0  0  0  0  0  0
   -0.7500   -1.2990    0.0000 C   0  0  0  0  0  0  0  0  0  0  0  0
  1  2  1  0
  2  3  1  0
  3  4  1  0
  4  5  2  0
  5  6  1  0
  6  7  2  0
  7  8  1  0
  8  9  2  0
  3 10  2  0
 10 11  1  0
 11 12  1  0
 12 13  1  0
 13 14  1  0
 14 15  1  0
 10 16  1  0
 16 17  2  0
 17 18  1  0
 18 19  2  0
 19 20  1  0
 20 21  2  0
 20 22  1  0
 22 23  1  0
 23 24  1  0
 24 25  2  0
 24 26  1  0
 26 27  1  0
 27 28  2  0
 28 29  1  0
 29 30  2  0
 30 31  1  0
 31 32  2  3
 32 33  1  0
 33 34  2  0
 33 35  1  0
 30 36  1  0
 36 37  2  0
 23 38  1  0
 38 39  1  0
 39 40  1  0
 19 41  1  0
 41 42  2  0
 42  2  1  0
  9  4  1  0
 15 11  1  0
 42 16  1  0
 40 23  1  0
 37 27  1  0
M  END
>  <Synonyms>  (305) 
BILB 1941|BILB-1941|BILB-1941ZW

>  <Research Codes>  (305) 
BILB-1941ZW

>  <Phase>  (305) 
1

>  <Applicants>  (305) 
nan

>  <USAN Stem>  (305) 
nan

>  <USAN Year>  (305) 
nan

>  <USAN Stem Definition>  (305) 
nan

>  <USAN Stem Substem>  (305) 
nan

>  <First Approval>  (305) 
nan

>  <ATC Codes>  (305) 
nan

>  <Level 4 ATC Codes>  (305) 
nan

>  <Level 3 ATC Codes>  (305) 
nan

>  <Level 2 ATC Codes>  (305) 
nan

>  <Level 1 ATC Codes>  (305) 
nan

>  <Indication Class>  (305) 
nan

>  <Patent>  (305) 
nan

>  <Drug Type>  (305) 
1:Synthetic Small Molecule

>  <Passes Rule of Five>  (305) 
False

>  <First In Class>  (305) 
False

>  <Chirality>  (305) 
Achiral Molecule

>  <Prodrug>  (305) 
False

>  <Oral>  (305) 
False

>  <Parenteral>  (305) 
False

>  <Topical>  (305) 
False

>  <Black Box>  (305) 
False

>  <Availability Type>  (305) 
Unknown

>  <Withdrawn Year>  (305) 
nan

>  <Withdrawn Reason>  (305) 
nan

>  <Withdrawn Country>  (305) 
nan

>  <Withdrawn Class>  (305) 
nan

>  <SMILES>  (305) 
Cn1c(-c2ccccn2)c(C2CCCC2)c2ccc(C(=O)NC3(C(=O)Nc4ccc(/C=C/C(=O)O)cc4)CCC3)cc21

>  <InChi Key>  (305) 
JBSNALXXNTWUEC-UHFFFAOYSA-N

$$$$
CHEMBL35306
     RDKit          2D

 35 37  0  0  0  0  0  0  0  0999 V2000
    5.1748  -12.0925    0.0000 C   0  0  0  0  0  0  0  0  0  0  0  0
    3.9613  -11.2108    0.0000 C   0  0  0  0  0  0  0  0  0  0  0  0
    4.1181   -9.7190    0.0000 C   0  0  0  0  0  0  0  0  0  0  0  0
    5.4884   -9.1089    0.0000 N   0  0  0  0  0  0  0  0  0  0  0  0
    2.9046   -8.8373    0.0000 C   0  0  0  0  0  0  0  0  0  0  0  0
    1.5342   -9.4474    0.0000 O   0  0  0  0  0  0  0  0  0  0  0  0
    3.0613   -7.3456    0.0000 N   0  0  0  0  0  0  0  0  0  0  0  0
    1.8478   -6.4639    0.0000 C   0  0  0  0  0  0  0  0  0  0  0  0
    0.4775   -7.0740    0.0000 C   0  0  0  0  0  0  0  0  0  0  0  0
   -0.7360   -6.1923    0.0000 O   0  0  0  0  0  0  0  0  0  0  0  0
    0.3207   -8.5658    0.0000 O   0  0  0  0  0  0  0  0  0  0  0  0
    2.0046   -4.9721    0.0000 C   0  0  0  0  0  0  0  0  0  0  0  0
    0.8899   -3.9684    0.0000 O   0  0  0  0  0  0  0  0  0  0  0  0
    1.5000   -2.5981    0.0000 C   0  0  0  0  0  0  0  0  0  0  0  0
    0.7500   -1.2990    0.0000 N   0  0  0  0  0  0  0  0  0  0  0  0
    1.5000    0.0000    0.0000 C   0  0  0  0  0  0  0  0  0  0  0  0
    0.7500    1.2990    0.0000 C   0  0  0  0  0  0  0  0  0  0  0  0
   -0.7500    1.2990    0.0000 C   0  0  0  0  0  0  0  0  0  0  0  0
   -1.5000    2.5981    0.0000 O   0  0  0  0  0  0  0  0  0  0  0  0
   -1.5000    0.0000    0.0000 N   0  0  0  0  0  0  0  0  0  0  0  0
   -0.7500   -1.2990    0.0000 C   0  0  0  0  0  0  0  0  0  0  0  0
   -1.5000   -2.5981    0.0000 O   0  0  0  0  0  0  0  0  0  0  0  0
    2.9918   -2.7549    0.0000 C   0  0  0  0  0  0  0  0  0  0  0  0
    3.9955   -1.6402    0.0000 O   0  0  0  0  0  0  0  0  0  0  0  0
    3.3037   -4.2221    0.0000 C   0  0  0  0  0  0  0  0  0  0  0  0
    4.6740   -4.8322    0.0000 O   0  0  0  0  0  0  0  0  0  0  0  0
    2.5910  -11.8209    0.0000 C   0  0  0  0  0  0  0  0  0  0  0  0
    1.3774  -10.9392    0.0000 O   0  0  0  0  0  0  0  0  0  0  0  0
    2.4342  -13.3127    0.0000 C   0  0  0  0  0  0  0  0  0  0  0  0
    1.0639  -13.9228    0.0000 C   0  0  0  0  0  0  0  0  0  0  0  0
    0.9071  -15.4146    0.0000 C   0  0  0  0  0  0  0  0  0  0  0  0
    2.1206  -16.2962    0.0000 C   0  0  0  0  0  0  0  0  0  0  0  0
    1.9638  -17.7880    0.0000 O   0  0  0  0  0  0  0  0  0  0  0  0
    3.4909  -15.6861    0.0000 C   0  0  0  0  0  0  0  0  0  0  0  0
    3.6477  -14.1944    0.0000 N   0  0  0  0  0  0  0  0  0  0  0  0
  1  2  1  0
  2  3  1  0
  3  4  1  0
  3  5  1  0
  5  6  2  0
  5  7  1  0
  7  8  1  0
  8  9  1  0
  9 10  2  0
  9 11  1  0
  8 12  1  0
 12 13  1  0
 13 14  1  0
 14 15  1  1
 15 16  1  0
 16 17  2  0
 17 18  1  0
 18 19  2  0
 18 20  1  0
 20 21  1  0
 21 22  2  0
 14 23  1  0
 23 24  1  6
 23 25  1  0
 25 26  1  6
  2 27  1  0
 27 28  1  1
 27 29  1  0
 29 30  2  0
 30 31  1  0
 31 32  2  0
 32 33  1  0
 32 34  1  0
 34 35  2  0
 25 12  1  0
 35 29  1  0
 21 15  1  0
M  END
>  <Synonyms>  (306) 
NIKKOMYCIN|Nikkomycin Z

>  <Research Codes>  (306) 
nan

>  <Phase>  (306) 
1

>  <Applicants>  (306) 
nan

>  <USAN Stem>  (306) 
'-mycin'

>  <USAN Year>  (306) 
nan

>  <USAN Stem Definition>  (306) 
antibiotics (Streptomyces strains)

>  <USAN Stem Substem>  (306) 
'-mycin(-mycin)'

>  <First Approval>  (306) 
nan

>  <ATC Codes>  (306) 
nan

>  <Level 4 ATC Codes>  (306) 
nan

>  <Level 3 ATC Codes>  (306) 
nan

>  <Level 2 ATC Codes>  (306) 
nan

>  <Level 1 ATC Codes>  (306) 
nan

>  <Indication Class>  (306) 
nan

>  <Patent>  (306) 
nan

>  <Drug Type>  (306) 
7:Natural Product-derived

>  <Passes Rule of Five>  (306) 
False

>  <First In Class>  (306) 
False

>  <Chirality>  (306) 
Unknown

>  <Prodrug>  (306) 
False

>  <Oral>  (306) 
False

>  <Parenteral>  (306) 
False

>  <Topical>  (306) 
False

>  <Black Box>  (306) 
False

>  <Availability Type>  (306) 
Unknown

>  <Withdrawn Year>  (306) 
nan

>  <Withdrawn Reason>  (306) 
nan

>  <Withdrawn Country>  (306) 
nan

>  <Withdrawn Class>  (306) 
nan

>  <SMILES>  (306) 
C[C@@H]([C@H](N)C(=O)N[C@H](C(=O)O)[C@H]1O[C@@H](n2ccc(=O)[nH]c2=O)[C@H](O)[C@@H]1O)[C@H](O)c1ccc(O)cn1

>  <InChi Key>  (306) 
WWJFFVUVFNBJTN-PNMLIKGFSA-N

$$$$
CHEMBL1673408
     RDKit          2D

 22 24  0  0  0  0  0  0  0  0999 V2000
    3.0000    0.0000    0.0000 C   0  0  0  0  0  0  0  0  0  0  0  0
    1.5000    0.0000    0.0000 N   0  0  0  0  0  0  0  0  0  0  0  0
    0.7500   -1.2990    0.0000 C   0  0  0  0  0  0  0  0  0  0  0  0
   -0.7500   -1.2990    0.0000 C   0  0  0  0  0  0  0  0  0  0  0  0
   -1.5000    0.0000    0.0000 N   0  0  0  0  0  0  0  0  0  0  0  0
   -3.0000    0.0000    0.0000 C   0  0  0  0  0  0  0  0  0  0  0  0
   -3.7500    1.2990    0.0000 C   0  0  0  0  0  0  0  0  0  0  0  0
   -5.2500    1.2990    0.0000 C   0  0  0  0  0  0  0  0  0  0  0  0
   -6.0000    0.0000    0.0000 C   0  0  0  0  0  0  0  0  0  0  0  0
   -7.5000    0.0000    0.0000 N   0  0  0  0  0  0  0  0  0  0  0  0
   -8.3817   -1.2135    0.0000 C   0  0  0  0  0  0  0  0  0  0  0  0
   -9.8083   -0.7500    0.0000 C   0  0  0  0  0  0  0  0  0  0  0  0
  -11.0218   -1.6317    0.0000 C   0  0  0  0  0  0  0  0  0  0  0  0
  -12.3921   -1.0216    0.0000 O   0  0  0  0  0  0  0  0  0  0  0  0
   -9.8083    0.7500    0.0000 O   0  0  0  0  0  0  0  0  0  0  0  0
   -8.3817    1.2135    0.0000 C   0  0  0  0  0  0  0  0  0  0  0  0
   -7.9182    2.6401    0.0000 O   0  0  0  0  0  0  0  0  0  0  0  0
   -5.2500   -1.2990    0.0000 C   0  0  0  0  0  0  0  0  0  0  0  0
   -3.7500   -1.2990    0.0000 C   0  0  0  0  0  0  0  0  0  0  0  0
   -3.0000   -2.5981    0.0000 F   0  0  0  0  0  0  0  0  0  0  0  0
   -0.7500    1.2990    0.0000 C   0  0  0  0  0  0  0  0  0  0  0  0
    0.7500    1.2990    0.0000 N   0  0  0  0  0  0  0  0  0  0  0  0
  1  2  1  0
  2  3  1  0
  3  4  1  0
  4  5  1  0
  5  6  1  0
  6  7  2  0
  7  8  1  0
  8  9  2  0
  9 10  1  0
 10 11  1  0
 11 12  1  0
 12 13  1  6
 13 14  1  0
 12 15  1  0
 15 16  1  0
 16 17  2  0
  9 18  1  0
 18 19  2  0
 19 20  1  0
  5 21  1  0
 21 22  2  0
 22  2  1  0
 19  6  1  0
 16 10  1  0
M  END
>  <Synonyms>  (307) 
DELPAZOLID|LCB-01-0371|LCB-010371|LCB01-0371

>  <Research Codes>  (307) 
LCB-01-0371|LCB-010371

>  <Phase>  (307) 
1

>  <Applicants>  (307) 
nan

>  <USAN Stem>  (307) 
'-zolid'

>  <USAN Year>  (307) 
nan

>  <USAN Stem Definition>  (307) 
oxazolidinone antibacterials

>  <USAN Stem Substem>  (307) 
'-zolid(-zolid)'

>  <First Approval>  (307) 
nan

>  <ATC Codes>  (307) 
nan

>  <Level 4 ATC Codes>  (307) 
nan

>  <Level 3 ATC Codes>  (307) 
nan

>  <Level 2 ATC Codes>  (307) 
nan

>  <Level 1 ATC Codes>  (307) 
nan

>  <Indication Class>  (307) 
nan

>  <Patent>  (307) 
nan

>  <Drug Type>  (307) 
1:Synthetic Small Molecule

>  <Passes Rule of Five>  (307) 
True

>  <First In Class>  (307) 
False

>  <Chirality>  (307) 
Single Stereoisomer

>  <Prodrug>  (307) 
False

>  <Oral>  (307) 
False

>  <Parenteral>  (307) 
False

>  <Topical>  (307) 
False

>  <Black Box>  (307) 
False

>  <Availability Type>  (307) 
Unknown

>  <Withdrawn Year>  (307) 
nan

>  <Withdrawn Reason>  (307) 
nan

>  <Withdrawn Country>  (307) 
nan

>  <Withdrawn Class>  (307) 
nan

>  <SMILES>  (307) 
CN1CCN(c2ccc(N3C[C@H](CO)OC3=O)cc2F)C=N1

>  <InChi Key>  (307) 
QLUWQAFDTNAYPN-LLVKDONJSA-N

$$$$
CHEMBL509273
     RDKit          2D

  5  4  0  0  0  0  0  0  0  0999 V2000
    2.5981   -0.0000    0.0000 O   0  0  0  0  0  0  0  0  0  0  0  0
    1.2990    0.7500    0.0000 C   0  0  0  0  0  0  0  0  0  0  0  0
    1.2990    2.2500    0.0000 O   0  0  0  0  0  0  0  0  0  0  0  0
    0.0000    0.0000    0.0000 C   0  0  0  0  0  0  0  0  0  0  0  0
   -1.2990    0.7500    0.0000 F   0  0  0  0  0  0  0  0  0  0  0  0
  1  2  2  0
  2  3  1  0
  2  4  1  0
  4  5  1  0
M  END
>  <Synonyms>  (308) 
2-Fluoroacetic Acid|FLUOROACETATE

>  <Research Codes>  (308) 
nan

>  <Phase>  (308) 
1

>  <Applicants>  (308) 
nan

>  <USAN Stem>  (308) 
nan

>  <USAN Year>  (308) 
nan

>  <USAN Stem Definition>  (308) 
nan

>  <USAN Stem Substem>  (308) 
nan

>  <First Approval>  (308) 
nan

>  <ATC Codes>  (308) 
nan

>  <Level 4 ATC Codes>  (308) 
nan

>  <Level 3 ATC Codes>  (308) 
nan

>  <Level 2 ATC Codes>  (308) 
nan

>  <Level 1 ATC Codes>  (308) 
nan

>  <Indication Class>  (308) 
nan

>  <Patent>  (308) 
nan

>  <Drug Type>  (308) 
1:Synthetic Small Molecule

>  <Passes Rule of Five>  (308) 
True

>  <First In Class>  (308) 
False

>  <Chirality>  (308) 
Unknown

>  <Prodrug>  (308) 
False

>  <Oral>  (308) 
False

>  <Parenteral>  (308) 
False

>  <Topical>  (308) 
False

>  <Black Box>  (308) 
False

>  <Availability Type>  (308) 
Unknown

>  <Withdrawn Year>  (308) 
nan

>  <Withdrawn Reason>  (308) 
nan

>  <Withdrawn Country>  (308) 
nan

>  <Withdrawn Class>  (308) 
nan

>  <SMILES>  (308) 
O=C(O)CF

>  <InChi Key>  (308) 
QEWYKACRFQMRMB-UHFFFAOYSA-N

$$$$
CHEMBL77101
     RDKit          2D

 20 19  0  0  0  0  0  0  0  0999 V2000
    0.0000    0.0000    0.0000 C   0  0  0  0  0  0  0  0  0  0  0  0
    1.2990    0.7500    0.0000 C   0  0  0  0  0  0  0  0  0  0  0  0
    2.5981   -0.0000    0.0000 N   0  0  0  0  0  0  0  0  0  0  0  0
    3.8971    0.7500    0.0000 C   0  0  0  0  0  0  0  0  0  0  0  0
    5.1962   -0.0000    0.0000 C   0  0  0  0  0  0  0  0  0  0  0  0
    6.4952    0.7500    0.0000 C   0  0  0  0  0  0  0  0  0  0  0  0
    7.7942   -0.0000    0.0000 C   0  0  0  0  0  0  0  0  0  0  0  0
    9.0933    0.7500    0.0000 N   0  0  0  0  0  0  0  0  0  0  0  0
   10.3923   -0.0000    0.0000 C   0  0  0  0  0  0  0  0  0  0  0  0
   11.6913    0.7500    0.0000 C   0  0  0  0  0  0  0  0  0  0  0  0
   12.9904   -0.0000    0.0000 C   0  0  0  0  0  0  0  0  0  0  0  0
   14.2894    0.7500    0.0000 C   0  0  0  0  0  0  0  0  0  0  0  0
   15.5885   -0.0000    0.0000 N   0  0  0  0  0  0  0  0  0  0  0  0
   16.8875    0.7500    0.0000 C   0  0  0  0  0  0  0  0  0  0  0  0
   18.1865   -0.0000    0.0000 C   0  0  0  0  0  0  0  0  0  0  0  0
   19.4856    0.7500    0.0000 C   0  0  0  0  0  0  0  0  0  0  0  0
   20.7846   -0.0000    0.0000 C   0  0  0  0  0  0  0  0  0  0  0  0
   22.0836    0.7500    0.0000 N   0  0  0  0  0  0  0  0  0  0  0  0
   23.3827   -0.0000    0.0000 C   0  0  0  0  0  0  0  0  0  0  0  0
   24.6817    0.7500    0.0000 C   0  0  0  0  0  0  0  0  0  0  0  0
  1  2  1  0
  2  3  1  0
  3  4  1  0
  4  5  1  0
  5  6  1  0
  6  7  1  0
  7  8  1  0
  8  9  1  0
  9 10  1  0
 10 11  1  0
 11 12  1  0
 12 13  1  0
 13 14  1  0
 14 15  1  0
 15 16  1  0
 16 17  1  0
 17 18  1  0
 18 19  1  0
 19 20  1  0
M  END
>  <Synonyms>  (309) 
DIETHYLHOMOSPERMINE

>  <Research Codes>  (309) 
nan

>  <Phase>  (309) 
1

>  <Applicants>  (309) 
nan

>  <USAN Stem>  (309) 
nan

>  <USAN Year>  (309) 
nan

>  <USAN Stem Definition>  (309) 
nan

>  <USAN Stem Substem>  (309) 
nan

>  <First Approval>  (309) 
nan

>  <ATC Codes>  (309) 
nan

>  <Level 4 ATC Codes>  (309) 
nan

>  <Level 3 ATC Codes>  (309) 
nan

>  <Level 2 ATC Codes>  (309) 
nan

>  <Level 1 ATC Codes>  (309) 
nan

>  <Indication Class>  (309) 
nan

>  <Patent>  (309) 
nan

>  <Drug Type>  (309) 
1:Synthetic Small Molecule

>  <Passes Rule of Five>  (309) 
True

>  <First In Class>  (309) 
False

>  <Chirality>  (309) 
Achiral Molecule

>  <Prodrug>  (309) 
False

>  <Oral>  (309) 
False

>  <Parenteral>  (309) 
False

>  <Topical>  (309) 
False

>  <Black Box>  (309) 
False

>  <Availability Type>  (309) 
Unknown

>  <Withdrawn Year>  (309) 
nan

>  <Withdrawn Reason>  (309) 
nan

>  <Withdrawn Country>  (309) 
nan

>  <Withdrawn Class>  (309) 
nan

>  <SMILES>  (309) 
CCNCCCCNCCCCNCCCCNCC

>  <InChi Key>  (309) 
QXOCYGPVDXDFLC-UHFFFAOYSA-N

$$$$
CHEMBL3354350
     RDKit          2D

 25 25  0  0  0  0  0  0  0  0999 V2000
    3.7500   -6.4952    0.0000 C   0  0  0  0  0  0  0  0  0  0  0  0
    3.0000   -5.1962    0.0000 C   0  0  0  0  0  0  0  0  0  0  0  0
    3.7500   -3.8971    0.0000 C   0  0  0  0  0  0  0  0  0  0  0  0
    3.0000   -2.5981    0.0000 O   0  0  0  0  0  0  0  0  0  0  0  0
    3.7500   -1.2990    0.0000 C   0  0  0  0  0  0  0  0  0  0  0  0
    5.2500   -1.2990    0.0000 O   0  0  0  0  0  0  0  0  0  0  0  0
    3.0000    0.0000    0.0000 C   0  0  0  0  0  0  0  0  0  0  0  0
    1.5000    0.0000    0.0000 C   0  0  0  0  0  0  0  0  0  0  0  0
    0.7500   -1.2990    0.0000 C   0  0  0  0  0  0  0  0  0  0  0  0
   -0.7500   -1.2990    0.0000 C   0  0  0  0  0  0  0  0  0  0  0  0
   -1.5000    0.0000    0.0000 C   0  0  0  0  0  0  0  0  0  0  0  0
   -3.0000    0.0000    0.0000 O   0  0  0  0  0  0  0  0  0  0  0  0
   -3.7500    1.2990    0.0000 C   0  0  0  0  0  0  0  0  0  0  0  0
   -5.2500    1.2990    0.0000 C   0  0  0  0  0  0  0  0  0  0  0  0
   -6.0000   -0.0000    0.0000 O   0  0  0  0  0  0  0  0  0  0  0  0
   -6.0000    2.5981    0.0000 N   0  0  0  0  0  0  0  0  0  0  0  0
   -7.5000    2.5981    0.0000 C   0  0  0  0  0  0  0  0  0  0  0  0
   -8.2500    3.8971    0.0000 C   0  0  0  0  0  0  0  0  0  0  0  0
   -5.2500    3.8971    0.0000 C   0  0  0  0  0  0  0  0  0  0  0  0
   -6.0000    5.1962    0.0000 C   0  0  0  0  0  0  0  0  0  0  0  0
   -0.7500    1.2990    0.0000 C   0  0  0  0  0  0  0  0  0  0  0  0
   -1.5000    2.5981    0.0000 O   0  0  0  0  0  0  0  0  0  0  0  0
   -0.7500    3.8971    0.0000 C   0  0  0  0  0  0  0  0  0  0  0  0
   -1.5000    5.1962    0.0000 C   0  0  0  0  0  0  0  0  0  0  0  0
    0.7500    1.2990    0.0000 C   0  0  0  0  0  0  0  0  0  0  0  0
  1  2  1  0
  2  3  1  0
  3  4  1  0
  4  5  1  0
  5  6  2  0
  5  7  1  0
  7  8  1  0
  8  9  2  0
  9 10  1  0
 10 11  2  0
 11 12  1  0
 12 13  1  0
 13 14  1  0
 14 15  2  0
 14 16  1  0
 16 17  1  0
 17 18  1  0
 16 19  1  0
 19 20  1  0
 11 21  1  0
 21 22  1  0
 22 23  1  0
 23 24  1  0
 21 25  2  0
 25  8  1  0
M  END
>  <Synonyms>  (310) 
AZD 3043|AZD-3043|AZD3043|THRX-918661

>  <Research Codes>  (310) 
AZD3043|THRX-918661

>  <Phase>  (310) 
1

>  <Applicants>  (310) 
nan

>  <USAN Stem>  (310) 
nan

>  <USAN Year>  (310) 
nan

>  <USAN Stem Definition>  (310) 
nan

>  <USAN Stem Substem>  (310) 
nan

>  <First Approval>  (310) 
nan

>  <ATC Codes>  (310) 
nan

>  <Level 4 ATC Codes>  (310) 
nan

>  <Level 3 ATC Codes>  (310) 
nan

>  <Level 2 ATC Codes>  (310) 
nan

>  <Level 1 ATC Codes>  (310) 
nan

>  <Indication Class>  (310) 
nan

>  <Patent>  (310) 
nan

>  <Drug Type>  (310) 
1:Synthetic Small Molecule

>  <Passes Rule of Five>  (310) 
True

>  <First In Class>  (310) 
False

>  <Chirality>  (310) 
Achiral Molecule

>  <Prodrug>  (310) 
False

>  <Oral>  (310) 
False

>  <Parenteral>  (310) 
False

>  <Topical>  (310) 
False

>  <Black Box>  (310) 
False

>  <Availability Type>  (310) 
Unknown

>  <Withdrawn Year>  (310) 
nan

>  <Withdrawn Reason>  (310) 
nan

>  <Withdrawn Country>  (310) 
nan

>  <Withdrawn Class>  (310) 
nan

>  <SMILES>  (310) 
CCCOC(=O)Cc1ccc(OCC(=O)N(CC)CC)c(OCC)c1

>  <InChi Key>  (310) 
QPUVKSKJCNGSGT-UHFFFAOYSA-N

$$$$
CHEMBL430341
     RDKit          2D

 67 74  0  0  0  0  0  0  0  0999 V2000
    1.8940   -7.6061    0.0000 C   0  0  0  0  0  0  0  0  0  0  0  0
    1.7372   -6.1143    0.0000 C   0  0  0  0  0  0  0  0  0  0  0  0
    0.4381   -5.3643    0.0000 C   0  0  0  0  0  0  0  0  0  0  0  0
    0.7500   -3.8971    0.0000 C   0  0  0  0  0  0  0  0  0  0  0  0
   -0.7500   -3.8971    0.0000 C   0  0  0  0  0  0  0  0  0  0  0  0
   -1.5000   -2.5981    0.0000 C   0  0  0  0  0  0  0  0  0  0  0  0
   -0.7500   -1.2990    0.0000 C   0  0  0  0  0  0  0  0  0  0  0  0
    0.7500   -1.2990    0.0000 C   0  0  0  0  0  0  0  0  0  0  0  0
    2.2500   -1.2990    0.0000 C   0  0  0  0  0  0  0  0  0  0  0  0
    1.5000    0.0000    0.0000 C   0  0  0  0  0  0  0  0  0  0  0  0
    0.7500    1.2990    0.0000 C   0  0  0  0  0  0  0  0  0  0  0  0
   -0.7500    1.2990    0.0000 C   0  0  0  0  0  0  0  0  0  0  0  0
   -1.5000    0.0000    0.0000 C   0  0  0  0  0  0  0  0  0  0  0  0
   -2.6491   -0.9642    0.0000 C   0  0  0  0  0  0  0  0  0  0  0  0
   -2.6491    0.9642    0.0000 C   0  0  0  0  0  0  0  0  0  0  0  0
   -4.0586    0.4512    0.0000 O   0  0  0  0  0  0  0  0  0  0  0  0
   -2.3886    2.4414    0.0000 O   0  0  0  0  0  0  0  0  0  0  0  0
   -3.5377    3.4056    0.0000 C   0  0  0  0  0  0  0  0  0  0  0  0
   -3.2772    4.8828    0.0000 O   0  0  0  0  0  0  0  0  0  0  0  0
   -4.4263    5.8470    0.0000 C   0  0  0  0  0  0  0  0  0  0  0  0
   -4.1658    7.3242    0.0000 C   0  0  0  0  0  0  0  0  0  0  0  0
   -2.7562    7.8372    0.0000 O   0  0  0  0  0  0  0  0  0  0  0  0
   -5.8358    5.3339    0.0000 C   0  0  0  0  0  0  0  0  0  0  0  0
   -6.9849    6.2981    0.0000 O   0  0  0  0  0  0  0  0  0  0  0  0
   -6.0963    3.8567    0.0000 C   0  0  0  0  0  0  0  0  0  0  0  0
   -7.5058    3.3437    0.0000 O   0  0  0  0  0  0  0  0  0  0  0  0
   -4.9472    2.8925    0.0000 C   0  0  0  0  0  0  0  0  0  0  0  0
   -5.2077    1.4153    0.0000 O   0  0  0  0  0  0  0  0  0  0  0  0
    1.5000   -2.5981    0.0000 C   0  0  0  0  0  0  0  0  0  0  0  0
    3.0000   -2.5981    0.0000 C   0  0  0  0  0  0  0  0  0  0  0  0
    3.7500   -3.8971    0.0000 C   0  0  0  0  0  0  0  0  0  0  0  0
    3.0000   -5.1962    0.0000 C   0  0  0  0  0  0  0  0  0  0  0  0
    3.7500   -6.4952    0.0000 O   0  0  0  0  0  0  0  0  0  0  0  0
    5.2500   -6.4952    0.0000 C   0  0  0  0  0  0  0  0  0  0  0  0
    6.0000   -7.7942    0.0000 O   0  0  0  0  0  0  0  0  0  0  0  0
    7.5000   -7.7942    0.0000 C   0  0  0  0  0  0  0  0  0  0  0  0
    8.2500   -9.0933    0.0000 C   0  0  0  0  0  0  0  0  0  0  0  0
    7.5000  -10.3923    0.0000 O   0  0  0  0  0  0  0  0  0  0  0  0
    8.2500   -6.4952    0.0000 C   0  0  0  0  0  0  0  0  0  0  0  0
    9.7500   -6.4952    0.0000 O   0  0  0  0  0  0  0  0  0  0  0  0
    7.5000   -5.1962    0.0000 C   0  0  0  0  0  0  0  0  0  0  0  0
    8.2500   -3.8971    0.0000 O   0  0  0  0  0  0  0  0  0  0  0  0
    6.0000   -5.1962    0.0000 C   0  0  0  0  0  0  0  0  0  0  0  0
    5.2500   -3.8971    0.0000 O   0  0  0  0  0  0  0  0  0  0  0  0
    6.0000   -2.5981    0.0000 C   0  0  0  0  0  0  0  0  0  0  0  0
    7.5000   -2.5981    0.0000 O   0  0  0  0  0  0  0  0  0  0  0  0
    8.2500   -1.2990    0.0000 C   0  0  0  0  0  0  0  0  0  0  0  0
    9.7500   -1.2990    0.0000 C   0  0  0  0  0  0  0  0  0  0  0  0
   10.5000   -0.0000    0.0000 O   0  0  0  0  0  0  0  0  0  0  0  0
    7.5000    0.0000    0.0000 C   0  0  0  0  0  0  0  0  0  0  0  0
    8.2500    1.2990    0.0000 O   0  0  0  0  0  0  0  0  0  0  0  0
    6.0000    0.0000    0.0000 C   0  0  0  0  0  0  0  0  0  0  0  0
    5.2500    1.2990    0.0000 O   0  0  0  0  0  0  0  0  0  0  0  0
    6.0000    2.5981    0.0000 C   0  0  0  0  0  0  0  0  0  0  0  0
    7.5000    2.5981    0.0000 O   0  0  0  0  0  0  0  0  0  0  0  0
    8.2500    3.8971    0.0000 C   0  0  0  0  0  0  0  0  0  0  0  0
    9.7500    3.8971    0.0000 C   0  0  0  0  0  0  0  0  0  0  0  0
   10.5000    2.5981    0.0000 O   0  0  0  0  0  0  0  0  0  0  0  0
    7.5000    5.1962    0.0000 C   0  0  0  0  0  0  0  0  0  0  0  0
    8.2500    6.4952    0.0000 O   0  0  0  0  0  0  0  0  0  0  0  0
    6.0000    5.1962    0.0000 C   0  0  0  0  0  0  0  0  0  0  0  0
    5.2500    6.4952    0.0000 O   0  0  0  0  0  0  0  0  0  0  0  0
    5.2500    3.8971    0.0000 C   0  0  0  0  0  0  0  0  0  0  0  0
    3.7500    3.8971    0.0000 O   0  0  0  0  0  0  0  0  0  0  0  0
    5.2500   -1.2990    0.0000 C   0  0  0  0  0  0  0  0  0  0  0  0
    3.7500   -1.2990    0.0000 O   0  0  0  0  0  0  0  0  0  0  0  0
    1.5000   -5.1962    0.0000 C   0  0  0  0  0  0  0  0  0  0  0  0
  1  2  2  0
  2  3  1  0
  4  3  1  1
  4  5  1  0
  5  6  1  0
  7  6  1  6
  7  8  1  0
  8  9  1  6
  8 10  1  0
 10 11  1  0
 11 12  1  0
 12 13  1  0
 13 14  1  1
 13 15  1  0
 15 16  2  0
 15 17  1  0
 18 17  1  1
 18 19  1  0
 19 20  1  0
 20 21  1  1
 21 22  1  0
 20 23  1  0
 23 24  1  6
 23 25  1  0
 25 26  1  1
 25 27  1  0
 27 28  1  6
  8 29  1  0
 29 30  1  6
 30 31  1  0
 31 32  1  0
 32 33  1  6
 34 33  1  1
 34 35  1  0
 35 36  1  0
 36 37  1  1
 37 38  1  0
 36 39  1  0
 39 40  1  6
 39 41  1  0
 41 42  1  1
 41 43  1  0
 43 44  1  6
 45 44  1  1
 45 46  1  0
 46 47  1  0
 47 48  1  1
 48 49  1  0
 47 50  1  0
 50 51  1  6
 50 52  1  0
 52 53  1  1
 54 53  1  1
 54 55  1  0
 55 56  1  0
 56 57  1  1
 57 58  1  0
 56 59  1  0
 59 60  1  6
 59 61  1  0
 61 62  1  1
 61 63  1  0
 63 64  1  6
 52 65  1  0
 65 66  1  6
 32 67  1  0
 32  2  1  0
 43 34  1  0
 65 45  1  0
 29  4  1  0
 63 54  1  0
 67  4  1  0
 13  7  1  0
 27 18  1  0
M  END
>  <Synonyms>  (311) 
E-960A|FEMA NO. 4601|INS NO.960A|INS-960A|REBAUDIOSIDE A

>  <Research Codes>  (311) 
E-960A|FEMA NO. 4601|INS NO.960A|INS-960A

>  <Phase>  (311) 
1

>  <Applicants>  (311) 
nan

>  <USAN Stem>  (311) 
nan

>  <USAN Year>  (311) 
nan

>  <USAN Stem Definition>  (311) 
nan

>  <USAN Stem Substem>  (311) 
nan

>  <First Approval>  (311) 
nan

>  <ATC Codes>  (311) 
nan

>  <Level 4 ATC Codes>  (311) 
nan

>  <Level 3 ATC Codes>  (311) 
nan

>  <Level 2 ATC Codes>  (311) 
nan

>  <Level 1 ATC Codes>  (311) 
nan

>  <Indication Class>  (311) 
nan

>  <Patent>  (311) 
nan

>  <Drug Type>  (311) 
7:Natural Product-derived

>  <Passes Rule of Five>  (311) 
False

>  <First In Class>  (311) 
False

>  <Chirality>  (311) 
Single Stereoisomer

>  <Prodrug>  (311) 
False

>  <Oral>  (311) 
False

>  <Parenteral>  (311) 
False

>  <Topical>  (311) 
False

>  <Black Box>  (311) 
False

>  <Availability Type>  (311) 
Unknown

>  <Withdrawn Year>  (311) 
nan

>  <Withdrawn Reason>  (311) 
nan

>  <Withdrawn Country>  (311) 
nan

>  <Withdrawn Class>  (311) 
nan

>  <SMILES>  (311) 
C=C1C[C@@]23CC[C@H]4[C@@](C)(CCC[C@@]4(C)C(=O)O[C@@H]4O[C@H](CO)[C@@H](O)[C@H](O)[C@H]4O)[C@@H]2CC[C@]1(O[C@@H]1O[C@H](CO)[C@@H](O)[C@H](O)[C@H]1O[C@@H]1O[C@H](CO)[C@@H](O)[C@H](O[C@@H]2O[C@H](CO)[C@@H](O)[C@H](O)[C@H]2O)[C@H]1O)C3

>  <InChi Key>  (311) 
GIPHUOWOTCAJSR-NCGAPWICSA-N

$$$$
CHEMBL441765
     RDKit          2D

 24 26  0  0  0  0  0  0  0  0999 V2000
    0.7500   -6.4952    0.0000 C   0  0  0  0  0  0  0  0  0  0  0  0
    1.5000   -5.1962    0.0000 N   0  0  0  0  0  0  0  0  0  0  0  0
    0.7500   -3.8971    0.0000 C   0  0  0  0  0  0  0  0  0  0  0  0
   -0.7500   -3.8971    0.0000 O   0  0  0  0  0  0  0  0  0  0  0  0
    1.5000   -2.5981    0.0000 C   0  0  0  0  0  0  0  0  0  0  0  0
    0.7500   -1.2990    0.0000 C   0  0  0  0  0  0  0  0  0  0  0  0
    1.5000    0.0000    0.0000 C   0  0  0  0  0  0  0  0  0  0  0  0
    0.7500    1.2990    0.0000 C   0  0  0  0  0  0  0  0  0  0  0  0
   -0.7500    1.2990    0.0000 C   0  0  0  0  0  0  0  0  0  0  0  0
   -1.5000    2.5981    0.0000 Cl  0  0  0  0  0  0  0  0  0  0  0  0
   -1.5000    0.0000    0.0000 C   0  0  0  0  0  0  0  0  0  0  0  0
   -3.0000    0.0000    0.0000 Cl  0  0  0  0  0  0  0  0  0  0  0  0
   -0.7500   -1.2990    0.0000 C   0  0  0  0  0  0  0  0  0  0  0  0
    3.0000   -5.1962    0.0000 C   0  0  0  0  0  0  0  0  0  0  0  0
    3.7500   -3.8971    0.0000 C   0  0  0  0  0  0  0  0  0  0  0  0
    5.2500   -3.8971    0.0000 C   0  0  0  0  0  0  0  0  0  0  0  0
    6.0000   -5.1962    0.0000 C   0  0  0  0  0  0  0  0  0  0  0  0
    5.2500   -6.4952    0.0000 C   0  0  0  0  0  0  0  0  0  0  0  0
    3.7500   -6.4952    0.0000 C   0  0  0  0  0  0  0  0  0  0  0  0
    3.0000   -7.7942    0.0000 N   0  0  0  0  0  0  0  0  0  0  0  0
    1.5082   -7.9510    0.0000 C   0  0  0  0  0  0  0  0  0  0  0  0
    1.1963   -9.4182    0.0000 C   0  0  0  0  0  0  0  0  0  0  0  0
    2.4954  -10.1682    0.0000 C   0  0  0  0  0  0  0  0  0  0  0  0
    3.6101   -9.1645    0.0000 C   0  0  0  0  0  0  0  0  0  0  0  0
  1  2  1  0
  2  3  1  0
  3  4  2  0
  3  5  1  0
  5  6  1  0
  6  7  2  0
  7  8  1  0
  8  9  2  0
  9 10  1  0
  9 11  1  0
 11 12  1  0
 11 13  2  0
 14  2  1  6
 14 15  1  0
 15 16  1  0
 16 17  1  0
 17 18  1  0
 18 19  1  0
 19 20  1  1
 20 21  1  0
 21 22  1  0
 22 23  1  0
 23 24  1  0
 13  6  1  0
 19 14  1  0
 24 20  1  0
M  END
>  <Synonyms>  (312) 
U-50488

>  <Research Codes>  (312) 
U-50488

>  <Phase>  (312) 
1

>  <Applicants>  (312) 
nan

>  <USAN Stem>  (312) 
nan

>  <USAN Year>  (312) 
nan

>  <USAN Stem Definition>  (312) 
nan

>  <USAN Stem Substem>  (312) 
nan

>  <First Approval>  (312) 
nan

>  <ATC Codes>  (312) 
nan

>  <Level 4 ATC Codes>  (312) 
nan

>  <Level 3 ATC Codes>  (312) 
nan

>  <Level 2 ATC Codes>  (312) 
nan

>  <Level 1 ATC Codes>  (312) 
nan

>  <Indication Class>  (312) 
nan

>  <Patent>  (312) 
nan

>  <Drug Type>  (312) 
1:Synthetic Small Molecule

>  <Passes Rule of Five>  (312) 
True

>  <First In Class>  (312) 
False

>  <Chirality>  (312) 
Unknown

>  <Prodrug>  (312) 
False

>  <Oral>  (312) 
False

>  <Parenteral>  (312) 
False

>  <Topical>  (312) 
False

>  <Black Box>  (312) 
False

>  <Availability Type>  (312) 
Unknown

>  <Withdrawn Year>  (312) 
nan

>  <Withdrawn Reason>  (312) 
nan

>  <Withdrawn Country>  (312) 
nan

>  <Withdrawn Class>  (312) 
nan

>  <SMILES>  (312) 
CN(C(=O)Cc1ccc(Cl)c(Cl)c1)[C@@H]1CCCC[C@H]1N1CCCC1

>  <InChi Key>  (312) 
VQLPLYSROCPWFF-QZTJIDSGSA-N

$$$$
CHEMBL54893
     RDKit          2D

 22 23  0  0  0  0  0  0  0  0999 V2000
    7.5000   -2.5981    0.0000 C   0  0  0  0  0  0  0  0  0  0  0  0
    6.0000   -2.5981    0.0000 C   0  0  0  0  0  0  0  0  0  0  0  0
    5.2500   -3.8971    0.0000 C   0  0  0  0  0  0  0  0  0  0  0  0
    5.2500   -1.2990    0.0000 C   0  0  0  0  0  0  0  0  0  0  0  0
    3.7500   -1.2990    0.0000 C   0  0  0  0  0  0  0  0  0  0  0  0
    3.0000    0.0000    0.0000 O   0  0  0  0  0  0  0  0  0  0  0  0
    1.5000    0.0000    0.0000 C   0  0  0  0  0  0  0  0  0  0  0  0
    0.7500   -1.2990    0.0000 C   0  0  0  0  0  0  0  0  0  0  0  0
   -0.7500   -1.2990    0.0000 C   0  0  0  0  0  0  0  0  0  0  0  0
   -1.5000   -2.5981    0.0000 N   0  0  0  0  0  0  0  0  0  0  0  0
   -3.0000   -2.5981    0.0000 C   0  0  0  0  0  0  0  0  0  0  0  0
   -3.7500   -1.2990    0.0000 S   0  0  0  0  0  0  0  0  0  0  0  0
   -3.7500   -3.8971    0.0000 C   0  0  0  0  0  0  0  0  0  0  0  0
   -3.1399   -5.2674    0.0000 C   0  0  0  0  0  0  0  0  0  0  0  0
   -4.2546   -6.2711    0.0000 C   0  0  0  0  0  0  0  0  0  0  0  0
   -5.5537   -5.5211    0.0000 O   0  0  0  0  0  0  0  0  0  0  0  0
   -5.2418   -4.0539    0.0000 C   0  0  0  0  0  0  0  0  0  0  0  0
   -6.2455   -2.9392    0.0000 C   0  0  0  0  0  0  0  0  0  0  0  0
   -1.5000    0.0000    0.0000 C   0  0  0  0  0  0  0  0  0  0  0  0
   -0.7500    1.2990    0.0000 C   0  0  0  0  0  0  0  0  0  0  0  0
    0.7500    1.2990    0.0000 C   0  0  0  0  0  0  0  0  0  0  0  0
    1.5000    2.5981    0.0000 Cl  0  0  0  0  0  0  0  0  0  0  0  0
  1  2  1  0
  2  3  1  0
  2  4  2  3
  4  5  1  0
  5  6  1  0
  6  7  1  0
  7  8  2  0
  8  9  1  0
  9 10  1  0
 10 11  1  0
 11 12  2  0
 11 13  1  0
 13 14  1  0
 14 15  2  0
 15 16  1  0
 16 17  1  0
 17 18  1  0
  9 19  2  0
 19 20  1  0
 20 21  2  0
 21 22  1  0
 21  7  1  0
 17 13  2  0
M  END
>  <Synonyms>  (313) 
UC 781|UC-781

>  <Research Codes>  (313) 
UC-781

>  <Phase>  (313) 
1

>  <Applicants>  (313) 
nan

>  <USAN Stem>  (313) 
nan

>  <USAN Year>  (313) 
nan

>  <USAN Stem Definition>  (313) 
nan

>  <USAN Stem Substem>  (313) 
nan

>  <First Approval>  (313) 
nan

>  <ATC Codes>  (313) 
nan

>  <Level 4 ATC Codes>  (313) 
nan

>  <Level 3 ATC Codes>  (313) 
nan

>  <Level 2 ATC Codes>  (313) 
nan

>  <Level 1 ATC Codes>  (313) 
nan

>  <Indication Class>  (313) 
nan

>  <Patent>  (313) 
nan

>  <Drug Type>  (313) 
1:Synthetic Small Molecule

>  <Passes Rule of Five>  (313) 
False

>  <First In Class>  (313) 
False

>  <Chirality>  (313) 
Unknown

>  <Prodrug>  (313) 
False

>  <Oral>  (313) 
False

>  <Parenteral>  (313) 
False

>  <Topical>  (313) 
False

>  <Black Box>  (313) 
False

>  <Availability Type>  (313) 
Unknown

>  <Withdrawn Year>  (313) 
nan

>  <Withdrawn Reason>  (313) 
nan

>  <Withdrawn Country>  (313) 
nan

>  <Withdrawn Class>  (313) 
nan

>  <SMILES>  (313) 
CC(C)=CCOc1cc(NC(=S)c2ccoc2C)ccc1Cl

>  <InChi Key>  (313) 
YZHIXLCGPOTQNB-UHFFFAOYSA-N

$$$$
CHEMBL4227721
     RDKit          2D

 42 46  0  0  0  0  0  0  0  0999 V2000
   12.2373   -0.4979    0.0000 C   0  0  0  0  0  0  0  0  0  0  0  0
   10.7373   -0.4979    0.0000 C   0  0  0  0  0  0  0  0  0  0  0  0
    9.9873   -1.7969    0.0000 O   0  0  0  0  0  0  0  0  0  0  0  0
    8.4873   -1.7969    0.0000 C   0  0  0  0  0  0  0  0  0  0  0  0
    7.7373   -0.4979    0.0000 O   0  0  0  0  0  0  0  0  0  0  0  0
    7.7373   -3.0960    0.0000 O   0  0  0  0  0  0  0  0  0  0  0  0
    6.2373   -3.0960    0.0000 C   0  0  0  0  0  0  0  0  0  0  0  0
    5.4873   -4.3950    0.0000 C   0  0  0  0  0  0  0  0  0  0  0  0
    5.4873   -1.7969    0.0000 N   0  0  0  0  0  0  0  0  0  0  0  0
    6.0974   -0.4266    0.0000 N   0  0  0  0  0  0  0  0  0  0  0  0
    4.9826    0.5771    0.0000 N   0  0  0  0  0  0  0  0  0  0  0  0
    3.6836   -0.1729    0.0000 N   0  0  0  0  0  0  0  0  0  0  0  0
    3.9955   -1.6402    0.0000 C   0  0  0  0  0  0  0  0  0  0  0  0
    2.9918   -2.7549    0.0000 C   0  0  0  0  0  0  0  0  0  0  0  0
    1.5000   -2.5981    0.0000 C   0  0  0  0  0  0  0  0  0  0  0  0
    0.7500   -1.2990    0.0000 C   0  0  0  0  0  0  0  0  0  0  0  0
    1.5000    0.0000    0.0000 C   0  0  0  0  0  0  0  0  0  0  0  0
    0.7500    1.2990    0.0000 C   0  0  0  0  0  0  0  0  0  0  0  0
   -0.7500    1.2990    0.0000 C   0  0  0  0  0  0  0  0  0  0  0  0
   -1.5000    2.5981    0.0000 C   0  0  0  0  0  0  0  0  0  0  0  0
   -3.0000    2.5981    0.0000 O   0  0  0  0  0  0  0  0  0  0  0  0
   -0.7500    3.8971    0.0000 N   0  0  0  0  0  0  0  0  0  0  0  0
    0.7500    3.8971    0.0000 C   0  0  0  0  0  0  0  0  0  0  0  0
    1.5000    2.5981    0.0000 N   0  0  0  0  0  0  0  0  0  0  0  0
    3.0000    2.5981    0.0000 C   0  0  0  0  0  0  0  0  0  0  0  0
    3.7500    3.8971    0.0000 C   0  0  0  0  0  0  0  0  0  0  0  0
    3.0000    5.1962    0.0000 C   0  0  0  0  0  0  0  0  0  0  0  0
    1.5000    5.1962    0.0000 C   0  0  0  0  0  0  0  0  0  0  0  0
    0.7500    6.4952    0.0000 Cl  0  0  0  0  0  0  0  0  0  0  0  0
   -1.5000    5.1962    0.0000 C   0  0  0  0  0  0  0  0  0  0  0  0
   -0.7500    6.4952    0.0000 C   0  0  0  0  0  0  0  0  0  0  0  0
   -1.5000    7.7942    0.0000 C   0  0  0  0  0  0  0  0  0  0  0  0
   -3.0000    7.7942    0.0000 C   0  0  0  0  0  0  0  0  0  0  0  0
   -3.7500    6.4952    0.0000 N   0  0  0  0  0  0  0  0  0  0  0  0
   -3.0000    5.1962    0.0000 C   0  0  0  0  0  0  0  0  0  0  0  0
   -1.5000    0.0000    0.0000 C   0  0  0  0  0  0  0  0  0  0  0  0
   -0.7500   -1.2990    0.0000 C   0  0  0  0  0  0  0  0  0  0  0  0
   -1.5000   -2.5981    0.0000 F   0  0  0  0  0  0  0  0  0  0  0  0
    0.8899   -3.9684    0.0000 C   0  0  0  0  0  0  0  0  0  0  0  0
    2.0046   -4.9721    0.0000 N   0  0  0  0  0  0  0  0  0  0  0  0
    3.3037   -4.2221    0.0000 N   0  0  0  0  0  0  0  0  0  0  0  0
    4.6740   -4.8322    0.0000 C   0  0  0  0  0  0  0  0  0  0  0  0
  1  2  1  0
  2  3  1  0
  3  4  1  0
  4  5  2  0
  4  6  1  0
  6  7  1  0
  7  8  1  1
  7  9  1  0
  9 10  1  0
 10 11  2  0
 11 12  1  0
 12 13  2  0
 13 14  1  0
 14 15  2  0
 15 16  1  0
 16 17  2  0
 17 18  1  0
 18 19  2  0
 19 20  1  0
 20 21  2  0
 20 22  1  0
 22 23  1  0
 23 24  2  0
 24 25  1  0
 25 26  2  0
 26 27  1  0
 27 28  2  0
 28 29  1  0
 30 22  1  1
 30 31  1  0
 31 32  1  0
 32 33  1  0
 33 34  1  0
 34 35  1  0
 19 36  1  0
 36 37  2  0
 37 38  1  0
 15 39  1  0
 39 40  2  0
 40 41  1  0
 41 42  1  0
 13  9  1  0
 41 14  1  0
 37 16  1  0
 28 23  1  0
 35 30  1  0
M  END
>  <Synonyms>  (314) 
PF-06815345

>  <Research Codes>  (314) 
PF-06815345

>  <Phase>  (314) 
1

>  <Applicants>  (314) 
nan

>  <USAN Stem>  (314) 
nan

>  <USAN Year>  (314) 
nan

>  <USAN Stem Definition>  (314) 
nan

>  <USAN Stem Substem>  (314) 
nan

>  <First Approval>  (314) 
nan

>  <ATC Codes>  (314) 
nan

>  <Level 4 ATC Codes>  (314) 
nan

>  <Level 3 ATC Codes>  (314) 
nan

>  <Level 2 ATC Codes>  (314) 
nan

>  <Level 1 ATC Codes>  (314) 
nan

>  <Indication Class>  (314) 
nan

>  <Patent>  (314) 
nan

>  <Drug Type>  (314) 
1:Synthetic Small Molecule

>  <Passes Rule of Five>  (314) 
False

>  <First In Class>  (314) 
False

>  <Chirality>  (314) 
Single Stereoisomer

>  <Prodrug>  (314) 
False

>  <Oral>  (314) 
False

>  <Parenteral>  (314) 
False

>  <Topical>  (314) 
False

>  <Black Box>  (314) 
False

>  <Availability Type>  (314) 
Unknown

>  <Withdrawn Year>  (314) 
nan

>  <Withdrawn Reason>  (314) 
nan

>  <Withdrawn Country>  (314) 
nan

>  <Withdrawn Class>  (314) 
nan

>  <SMILES>  (314) 
CCOC(=O)O[C@@H](C)n1nnnc1-c1c(-c2ccc(C(=O)N(c3ncccc3Cl)[C@@H]3CCCNC3)cc2F)cnn1C

>  <InChi Key>  (314) 
QTBYVAZRKWOIDU-FUHWJXTLSA-N

$$$$
CHEMBL4292264
     RDKit          2D

 42 47  0  0  0  0  0  0  0  0999 V2000
    2.6491    0.9642    0.0000 C   0  0  0  0  0  0  0  0  0  0  0  0
    1.5000    0.0000    0.0000 C   0  0  0  0  0  0  0  0  0  0  0  0
    2.6491   -0.9642    0.0000 C   0  0  0  0  0  0  0  0  0  0  0  0
    0.7500   -1.2990    0.0000 C   0  0  0  0  0  0  0  0  0  0  0  0
   -0.7500   -1.2990    0.0000 C   0  0  0  0  0  0  0  0  0  0  0  0
   -1.5000    0.0000    0.0000 C   0  0  0  0  0  0  0  0  0  0  0  0
   -0.7500    1.2990    0.0000 C   0  0  0  0  0  0  0  0  0  0  0  0
    0.7500    1.2990    0.0000 C   0  0  0  0  0  0  0  0  0  0  0  0
   -2.3817   -1.2135    0.0000 N   0  0  0  0  0  0  0  0  0  0  0  0
   -3.8083   -0.7500    0.0000 C   0  0  0  0  0  0  0  0  0  0  0  0
   -5.0218   -1.6317    0.0000 C   0  0  0  0  0  0  0  0  0  0  0  0
   -6.3921   -1.0216    0.0000 O   0  0  0  0  0  0  0  0  0  0  0  0
   -4.8650   -3.1235    0.0000 N   0  0  0  0  0  0  0  0  0  0  0  0
   -6.0785   -4.0051    0.0000 C   0  0  0  0  0  0  0  0  0  0  0  0
   -7.4488   -3.3950    0.0000 C   0  0  0  0  0  0  0  0  0  0  0  0
   -8.6624   -4.2767    0.0000 C   0  0  0  0  0  0  0  0  0  0  0  0
   -8.5056   -5.7685    0.0000 C   0  0  0  0  0  0  0  0  0  0  0  0
   -9.7191   -6.6502    0.0000 C   0  0  0  0  0  0  0  0  0  0  0  0
  -11.0894   -6.0401    0.0000 N   0  0  0  0  0  0  0  0  0  0  0  0
   -9.5623   -8.1420    0.0000 O   0  0  0  0  0  0  0  0  0  0  0  0
   -7.1353   -6.3786    0.0000 O   0  0  0  0  0  0  0  0  0  0  0  0
   -5.9217   -5.4969    0.0000 C   0  0  0  0  0  0  0  0  0  0  0  0
   -3.8083    0.7500    0.0000 C   0  0  0  0  0  0  0  0  0  0  0  0
   -5.0218    1.6317    0.0000 C   0  0  0  0  0  0  0  0  0  0  0  0
   -6.3921    1.0216    0.0000 C   0  0  0  0  0  0  0  0  0  0  0  0
   -7.6056    1.9033    0.0000 C   0  0  0  0  0  0  0  0  0  0  0  0
   -7.4488    3.3950    0.0000 N   0  0  0  0  0  0  0  0  0  0  0  0
   -6.0785    4.0051    0.0000 C   0  0  0  0  0  0  0  0  0  0  0  0
   -5.9217    5.4969    0.0000 Cl  0  0  0  0  0  0  0  0  0  0  0  0
   -4.8650    3.1235    0.0000 C   0  0  0  0  0  0  0  0  0  0  0  0
   -3.4947    3.7336    0.0000 F   0  0  0  0  0  0  0  0  0  0  0  0
   -2.3817    1.2135    0.0000 C   0  0  0  0  0  0  0  0  0  0  0  0
   -3.2634    2.4271    0.0000 C   0  0  0  0  0  0  0  0  0  0  0  0
   -4.1228    2.6414    0.0000 O   0  0  0  0  0  0  0  0  0  0  0  0
   -2.3817    3.6406    0.0000 N   0  0  0  0  0  0  0  0  0  0  0  0
   -0.9551    3.1771    0.0000 C   0  0  0  0  0  0  0  0  0  0  0  0
   -0.7078    3.4084    0.0000 C   0  0  0  0  0  0  0  0  0  0  0  0
   -0.7072    2.2821    0.0000 C   0  0  0  0  0  0  0  0  0  0  0  0
    2.9420    3.9271    0.0000 Cl  0  0  0  0  0  0  0  0  0  0  0  0
   -0.7072    2.5720    0.0000 C   0  0  0  0  0  0  0  0  0  0  0  0
   -0.7078    1.4457    0.0000 C   0  0  0  0  0  0  0  0  0  0  0  0
   -0.9551    1.6771    0.0000 C   0  0  0  0  0  0  0  0  0  0  0  0
  1  2  1  0
  2  3  1  0
  2  4  1  0
  4  5  1  0
  5  6  1  0
  6  7  1  0
  7  8  1  0
  6  9  1  0
  9 10  1  0
 10 11  1  0
 11 12  2  0
 11 13  1  0
 14 13  1  1
 14 15  1  0
 15 16  1  0
 16 17  1  0
 17 18  1  0
 18 19  1  0
 18 20  2  0
 17 21  1  0
 21 22  1  0
 10 23  1  0
 23 24  1  0
 24 25  2  0
 25 26  1  0
 26 27  2  0
 27 28  1  0
 28 29  1  0
 28 30  2  0
 30 31  1  0
 32 23  1  1
 32 33  1  0
 33 34  2  0
 33 35  1  0
 35 36  1  0
 36 37  2  0
 37 38  1  0
 38 39  1  0
 38 40  2  0
 40 41  1  0
 41 42  2  0
  8  2  1  0
 22 14  1  0
 30 24  1  0
 42 32  1  0
 32  6  1  0
 42 36  1  0
M  END
>  <Synonyms>  (315) 
DS-3032|MILADEMETAN

>  <Research Codes>  (315) 
DS-3032

>  <Phase>  (315) 
1

>  <Applicants>  (315) 
nan

>  <USAN Stem>  (315) 
nan

>  <USAN Year>  (315) 
nan

>  <USAN Stem Definition>  (315) 
nan

>  <USAN Stem Substem>  (315) 
nan

>  <First Approval>  (315) 
nan

>  <ATC Codes>  (315) 
nan

>  <Level 4 ATC Codes>  (315) 
nan

>  <Level 3 ATC Codes>  (315) 
nan

>  <Level 2 ATC Codes>  (315) 
nan

>  <Level 1 ATC Codes>  (315) 
nan

>  <Indication Class>  (315) 
nan

>  <Patent>  (315) 
nan

>  <Drug Type>  (315) 
1:Synthetic Small Molecule

>  <Passes Rule of Five>  (315) 
False

>  <First In Class>  (315) 
False

>  <Chirality>  (315) 
Single Stereoisomer

>  <Prodrug>  (315) 
False

>  <Oral>  (315) 
False

>  <Parenteral>  (315) 
False

>  <Topical>  (315) 
False

>  <Black Box>  (315) 
False

>  <Availability Type>  (315) 
Unknown

>  <Withdrawn Year>  (315) 
nan

>  <Withdrawn Reason>  (315) 
nan

>  <Withdrawn Country>  (315) 
nan

>  <Withdrawn Class>  (315) 
nan

>  <SMILES>  (315) 
CC1(C)CCC2(CC1)N[C@@H](C(=O)N[C@@H]1CC[C@@H](C(N)=O)OC1)[C@H](c1ccnc(Cl)c1F)[C@]21C(=O)Nc2cc(Cl)ccc21

>  <InChi Key>  (315) 
RYAYYVTWKAOAJF-XTYOJHSQSA-N

$$$$
CHEMBL4297370
     RDKit          2D

 27 30  0  0  0  0  0  0  0  0999 V2000
   10.5000   -2.5981    0.0000 O   0  0  0  0  0  0  0  0  0  0  0  0
    9.7500   -3.8971    0.0000 C   0  0  0  0  0  0  0  0  0  0  0  0
    8.2500   -3.8971    0.0000 C   0  0  0  0  0  0  0  0  0  0  0  0
    7.5000   -5.1962    0.0000 C   0  0  0  0  0  0  0  0  0  0  0  0
    6.0000   -5.1962    0.0000 N   0  0  0  0  0  0  0  0  0  0  0  0
    5.2500   -3.8971    0.0000 C   0  0  0  0  0  0  0  0  0  0  0  0
    3.7500   -3.8971    0.0000 C   0  0  0  0  0  0  0  0  0  0  0  0
    3.0000   -2.5981    0.0000 C   0  0  0  0  0  0  0  0  0  0  0  0
    1.5000   -2.5981    0.0000 N   0  0  0  0  0  0  0  0  0  0  0  0
    0.7500   -1.2990    0.0000 C   0  0  0  0  0  0  0  0  0  0  0  0
    1.5000    0.0000    0.0000 C   0  0  0  0  0  0  0  0  0  0  0  0
    0.7500    1.2990    0.0000 C   0  0  0  0  0  0  0  0  0  0  0  0
   -0.7500    1.2990    0.0000 O   0  0  0  0  0  0  0  0  0  0  0  0
   -1.5000    0.0000    0.0000 C   0  0  0  0  0  0  0  0  0  0  0  0
   -3.0000    0.0000    0.0000 C   0  0  0  0  0  0  0  0  0  0  0  0
   -3.7500    1.2990    0.0000 Br  0  0  0  0  0  0  0  0  0  0  0  0
   -3.7500   -1.2990    0.0000 C   0  0  0  0  0  0  0  0  0  0  0  0
   -3.0000   -2.5981    0.0000 C   0  0  0  0  0  0  0  0  0  0  0  0
   -3.7500   -3.8971    0.0000 Br  0  0  0  0  0  0  0  0  0  0  0  0
   -1.5000   -2.5981    0.0000 C   0  0  0  0  0  0  0  0  0  0  0  0
   -0.7500   -1.2990    0.0000 C   0  0  0  0  0  0  0  0  0  0  0  0
    8.2500   -6.4952    0.0000 N   0  0  0  0  0  0  0  0  0  0  0  0
    9.7500   -6.4952    0.0000 C   0  0  0  0  0  0  0  0  0  0  0  0
   10.7537   -7.6099    0.0000 C   0  0  0  0  0  0  0  0  0  0  0  0
   12.1240   -6.9998    0.0000 C   0  0  0  0  0  0  0  0  0  0  0  0
   11.9672   -5.5080    0.0000 S   0  0  0  0  0  0  0  0  0  0  0  0
   10.5000   -5.1962    0.0000 C   0  0  0  0  0  0  0  0  0  0  0  0
  1  2  2  0
  2  3  1  0
  3  4  2  0
  4  5  1  0
  5  6  1  0
  6  7  1  0
  7  8  1  0
  8  9  1  0
 10  9  1  1
 10 11  1  0
 11 12  1  0
 12 13  1  0
 13 14  1  0
 14 15  2  0
 15 16  1  0
 15 17  1  0
 17 18  2  0
 18 19  1  0
 18 20  1  0
 20 21  2  0
  4 22  1  0
 22 23  1  0
 23 24  1  0
 24 25  2  0
 25 26  1  0
 26 27  1  0
 27  2  1  0
 21 10  1  0
 27 23  2  0
 21 14  1  0
M  END
>  <Synonyms>  (316) 
CRS-3123|CRS3123|REP-3123|REP3123

>  <Research Codes>  (316) 
CRS3123|REP-3123|REP3123

>  <Phase>  (316) 
1

>  <Applicants>  (316) 
nan

>  <USAN Stem>  (316) 
nan

>  <USAN Year>  (316) 
nan

>  <USAN Stem Definition>  (316) 
nan

>  <USAN Stem Substem>  (316) 
nan

>  <First Approval>  (316) 
nan

>  <ATC Codes>  (316) 
nan

>  <Level 4 ATC Codes>  (316) 
nan

>  <Level 3 ATC Codes>  (316) 
nan

>  <Level 2 ATC Codes>  (316) 
nan

>  <Level 1 ATC Codes>  (316) 
nan

>  <Indication Class>  (316) 
nan

>  <Patent>  (316) 
nan

>  <Drug Type>  (316) 
1:Synthetic Small Molecule

>  <Passes Rule of Five>  (316) 
False

>  <First In Class>  (316) 
False

>  <Chirality>  (316) 
Single Stereoisomer

>  <Prodrug>  (316) 
False

>  <Oral>  (316) 
False

>  <Parenteral>  (316) 
False

>  <Topical>  (316) 
False

>  <Black Box>  (316) 
False

>  <Availability Type>  (316) 
Unknown

>  <Withdrawn Year>  (316) 
nan

>  <Withdrawn Reason>  (316) 
nan

>  <Withdrawn Country>  (316) 
nan

>  <Withdrawn Class>  (316) 
nan

>  <SMILES>  (316) 
O=c1cc(NCCCN[C@@H]2CCOc3c(Br)cc(Br)cc32)[nH]c2ccsc12

>  <InChi Key>  (316) 
NNTYBKTXMKBRFA-CQSZACIVSA-N

$$$$
CHEMBL4297582
     RDKit          2D

 36 38  0  0  0  0  0  0  0  0999 V2000
   12.7500   -3.8971    0.0000 O   0  0  0  0  0  0  0  0  0  0  0  0
   12.0000   -5.1962    0.0000 C   0  0  0  0  0  0  0  0  0  0  0  0
   10.5000   -5.1962    0.0000 C   0  0  0  0  0  0  0  0  0  0  0  0
    9.7500   -3.8971    0.0000 C   0  0  0  0  0  0  0  0  0  0  0  0
    8.2500   -3.8971    0.0000 C   0  0  0  0  0  0  0  0  0  0  0  0
    7.5000   -2.5981    0.0000 C   0  0  0  0  0  0  0  0  0  0  0  0
    6.0000   -2.5981    0.0000 C   0  0  0  0  0  0  0  0  0  0  0  0
    5.2500   -1.2990    0.0000 C   0  0  0  0  0  0  0  0  0  0  0  0
    3.7500   -1.2990    0.0000 C   0  0  0  0  0  0  0  0  0  0  0  0
    3.0000   -2.5981    0.0000 O   0  0  0  0  0  0  0  0  0  0  0  0
    3.0000    0.0000    0.0000 N   0  0  0  0  0  0  0  0  0  0  0  0
    1.5000    0.0000    0.0000 C   0  0  0  0  0  0  0  0  0  0  0  0
    0.7500   -1.2990    0.0000 C   0  0  0  0  0  0  0  0  0  0  0  0
   -0.7500   -1.2990    0.0000 C   0  0  0  0  0  0  0  0  0  0  0  0
   -1.5000    0.0000    0.0000 C   0  0  0  0  0  0  0  0  0  0  0  0
   -3.0000    0.0000    0.0000 C   0  0  0  0  0  0  0  0  0  0  0  0
   -3.7500    1.2990    0.0000 N   0  0  0  0  0  0  0  0  0  0  0  0
   -5.2500    1.2990    0.0000 C   0  0  0  0  0  0  0  0  0  0  0  0
   -6.0000    2.5981    0.0000 C   0  0  0  0  0  0  0  0  0  0  0  0
   -7.5000    2.5981    0.0000 O   0  0  0  0  0  0  0  0  0  0  0  0
   -5.2500    3.8971    0.0000 O   0  0  0  0  0  0  0  0  0  0  0  0
   -6.0000    5.1962    0.0000 C   0  0  0  0  0  0  0  0  0  0  0  0
   -7.4918    5.3529    0.0000 C   0  0  0  0  0  0  0  0  0  0  0  0
   -7.8037    6.8202    0.0000 C   0  0  0  0  0  0  0  0  0  0  0  0
   -6.5046    7.5702    0.0000 C   0  0  0  0  0  0  0  0  0  0  0  0
   -5.3899    6.5665    0.0000 C   0  0  0  0  0  0  0  0  0  0  0  0
   -6.0000   -0.0000    0.0000 C   0  0  0  0  0  0  0  0  0  0  0  0
   -7.5000   -0.0000    0.0000 C   0  0  0  0  0  0  0  0  0  0  0  0
   -8.2500   -1.2990    0.0000 C   0  0  0  0  0  0  0  0  0  0  0  0
   -7.5000   -2.5981    0.0000 C   0  0  0  0  0  0  0  0  0  0  0  0
   -6.0000   -2.5981    0.0000 C   0  0  0  0  0  0  0  0  0  0  0  0
   -5.2500   -1.2990    0.0000 C   0  0  0  0  0  0  0  0  0  0  0  0
   -0.7500    1.2990    0.0000 C   0  0  0  0  0  0  0  0  0  0  0  0
    0.7500    1.2990    0.0000 C   0  0  0  0  0  0  0  0  0  0  0  0
   12.7500   -6.4952    0.0000 N   0  0  0  0  0  0  0  0  0  0  0  0
   14.2500   -6.4952    0.0000 O   0  0  0  0  0  0  0  0  0  0  0  0
  1  2  1  0
  2  3  1  0
  3  4  1  0
  4  5  1  0
  5  6  1  0
  6  7  1  0
  7  8  1  0
  8  9  1  0
  9 10  2  0
  9 11  1  0
 11 12  1  0
 12 13  2  0
 13 14  1  0
 14 15  2  0
 15 16  1  0
 16 17  1  0
 17 18  1  0
 18 19  1  0
 19 20  2  0
 19 21  1  0
 21 22  1  0
 22 23  1  0
 23 24  1  0
 24 25  1  0
 25 26  1  0
 18 27  1  0
 27 28  2  0
 28 29  1  0
 29 30  2  0
 30 31  1  0
 31 32  2  0
 15 33  1  0
 33 34  2  0
  2 35  2  3
 35 36  1  0
 34 12  1  0
 26 22  1  0
 32 27  1  0
M  END
>  <Synonyms>  (317) 
TEFINOSTAT

>  <Research Codes>  (317) 
nan

>  <Phase>  (317) 
1

>  <Applicants>  (317) 
nan

>  <USAN Stem>  (317) 
'-stat'

>  <USAN Year>  (317) 
nan

>  <USAN Stem Definition>  (317) 
enzyme inhibitors: inhibitors of histone deacetylase

>  <USAN Stem Substem>  (317) 
'-stat(-stat (-inostat))'

>  <First Approval>  (317) 
nan

>  <ATC Codes>  (317) 
nan

>  <Level 4 ATC Codes>  (317) 
nan

>  <Level 3 ATC Codes>  (317) 
nan

>  <Level 2 ATC Codes>  (317) 
nan

>  <Level 1 ATC Codes>  (317) 
nan

>  <Indication Class>  (317) 
nan

>  <Patent>  (317) 
nan

>  <Drug Type>  (317) 
1:Synthetic Small Molecule

>  <Passes Rule of Five>  (317) 
True

>  <First In Class>  (317) 
False

>  <Chirality>  (317) 
Single Stereoisomer

>  <Prodrug>  (317) 
False

>  <Oral>  (317) 
False

>  <Parenteral>  (317) 
False

>  <Topical>  (317) 
False

>  <Black Box>  (317) 
False

>  <Availability Type>  (317) 
Unknown

>  <Withdrawn Year>  (317) 
nan

>  <Withdrawn Reason>  (317) 
nan

>  <Withdrawn Country>  (317) 
nan

>  <Withdrawn Class>  (317) 
nan

>  <SMILES>  (317) 
O=C(CCCCCCC(=O)Nc1ccc(CN[C@H](C(=O)OC2CCCC2)c2ccccc2)cc1)NO

>  <InChi Key>  (317) 
GLNWREBYRLDPQP-UHFFFAOYSA-N

$$$$
CHEMBL4297464
     RDKit          2D

 15 15  0  0  0  0  0  0  0  0999 V2000
    4.5000   -0.0000    0.0000 C   0  0  0  0  0  0  0  0  0  0  0  0
    3.0000   -0.0000    0.0000 S   0  0  0  0  0  0  0  0  0  0  0  0
    3.1481    1.2059    0.0000 O   0  0  0  0  0  0  0  0  0  0  0  0
    3.0000   -1.5000    0.0000 O   0  0  0  0  0  0  0  0  0  0  0  0
    1.5000    0.0000    0.0000 C   0  0  0  0  0  0  0  0  0  0  0  0
    0.7500   -1.2990    0.0000 C   0  0  0  0  0  0  0  0  0  0  0  0
   -0.7500   -1.2990    0.0000 C   0  0  0  0  0  0  0  0  0  0  0  0
   -1.5000    0.0000    0.0000 C   0  0  0  0  0  0  0  0  0  0  0  0
   -0.7500    1.2990    0.0000 C   0  0  0  0  0  0  0  0  0  0  0  0
    0.7500    1.2990    0.0000 C   0  0  0  0  0  0  0  0  0  0  0  0
    1.5000    2.5981    0.0000 S   0  0  0  0  0  0  0  0  0  0  0  0
    2.6184    2.1234    0.0000 O   0  0  0  0  0  0  0  0  0  0  0  0
    0.2010    3.3481    0.0000 O   0  0  0  0  0  0  0  0  0  0  0  0
    2.2500    3.8971    0.0000 N   0  0  0  0  0  0  0  0  0  0  0  0
    1.5000    5.1962    0.0000 O   0  0  0  0  0  0  0  0  0  0  0  0
  1  2  1  0
  2  3  2  0
  2  4  2  0
  2  5  1  0
  5  6  2  0
  6  7  1  0
  7  8  2  0
  8  9  1  0
  9 10  2  0
 10 11  1  0
 11 12  2  0
 11 13  2  0
 11 14  1  0
 14 15  1  0
 10  5  1  0
M  END
>  <Synonyms>  (318) 
CXL-1020

>  <Research Codes>  (318) 
CXL-1020

>  <Phase>  (318) 
1

>  <Applicants>  (318) 
nan

>  <USAN Stem>  (318) 
nan

>  <USAN Year>  (318) 
nan

>  <USAN Stem Definition>  (318) 
nan

>  <USAN Stem Substem>  (318) 
nan

>  <First Approval>  (318) 
nan

>  <ATC Codes>  (318) 
nan

>  <Level 4 ATC Codes>  (318) 
nan

>  <Level 3 ATC Codes>  (318) 
nan

>  <Level 2 ATC Codes>  (318) 
nan

>  <Level 1 ATC Codes>  (318) 
nan

>  <Indication Class>  (318) 
nan

>  <Patent>  (318) 
nan

>  <Drug Type>  (318) 
1:Synthetic Small Molecule

>  <Passes Rule of Five>  (318) 
True

>  <First In Class>  (318) 
False

>  <Chirality>  (318) 
Achiral Molecule

>  <Prodrug>  (318) 
False

>  <Oral>  (318) 
False

>  <Parenteral>  (318) 
False

>  <Topical>  (318) 
False

>  <Black Box>  (318) 
False

>  <Availability Type>  (318) 
Unknown

>  <Withdrawn Year>  (318) 
nan

>  <Withdrawn Reason>  (318) 
nan

>  <Withdrawn Country>  (318) 
nan

>  <Withdrawn Class>  (318) 
nan

>  <SMILES>  (318) 
CS(=O)(=O)c1ccccc1S(=O)(=O)NO

>  <InChi Key>  (318) 
RZRWBKKAFHXNEQ-UHFFFAOYSA-N

$$$$
CHEMBL4297601
     RDKit          2D

 42 45  0  0  0  0  0  0  0  0999 V2000
    3.7500   -1.2990    0.0000 C   0  0  0  0  0  0  0  0  0  0  0  0
    3.0000    0.0000    0.0000 O   0  0  0  0  0  0  0  0  0  0  0  0
    1.5000    0.0000    0.0000 C   0  0  0  0  0  0  0  0  0  0  0  0
    0.7500   -1.2990    0.0000 C   0  0  0  0  0  0  0  0  0  0  0  0
   -0.7500   -1.2990    0.0000 C   0  0  0  0  0  0  0  0  0  0  0  0
   -1.5000   -2.5981    0.0000 F   0  0  0  0  0  0  0  0  0  0  0  0
   -1.5000    0.0000    0.0000 C   0  0  0  0  0  0  0  0  0  0  0  0
   -3.0000    0.0000    0.0000 C   0  0  0  0  0  0  0  0  0  0  0  0
   -3.7500    1.2990    0.0000 C   0  0  0  0  0  0  0  0  0  0  0  0
   -3.7500   -1.2990    0.0000 C   0  0  0  0  0  0  0  0  0  0  0  0
   -0.7500    1.2990    0.0000 C   0  0  0  0  0  0  0  0  0  0  0  0
    0.7500    1.2990    0.0000 C   0  0  0  0  0  0  0  0  0  0  0  0
    1.5000    2.5981    0.0000 C   0  0  0  0  0  0  0  0  0  0  0  0
    3.0000    2.5981    0.0000 C   0  0  0  0  0  0  0  0  0  0  0  0
    3.7500    1.2990    0.0000 C   0  0  0  0  0  0  0  0  0  0  0  0
    5.2500    1.2990    0.0000 N   0  0  0  0  0  0  0  0  0  0  0  0
    6.1317    2.5126    0.0000 C   0  0  0  0  0  0  0  0  0  0  0  0
    5.6682    3.9391    0.0000 O   0  0  0  0  0  0  0  0  0  0  0  0
    7.5583    2.0490    0.0000 O   0  0  0  0  0  0  0  0  0  0  0  0
    7.5583    0.5490    0.0000 C   0  0  0  0  0  0  0  0  0  0  0  0
    8.7718   -0.3326    0.0000 C   0  0  0  0  0  0  0  0  0  0  0  0
    8.6150   -1.8244    0.0000 C   0  0  0  0  0  0  0  0  0  0  0  0
    9.8285   -2.7061    0.0000 C   0  0  0  0  0  0  0  0  0  0  0  0
    9.6717   -4.1979    0.0000 C   0  0  0  0  0  0  0  0  0  0  0  0
    9.5149   -5.6897    0.0000 F   0  0  0  0  0  0  0  0  0  0  0  0
    8.1799   -4.0411    0.0000 F   0  0  0  0  0  0  0  0  0  0  0  0
   11.1635   -4.3547    0.0000 F   0  0  0  0  0  0  0  0  0  0  0  0
   11.1988   -2.0960    0.0000 C   0  0  0  0  0  0  0  0  0  0  0  0
   11.3556   -0.6042    0.0000 C   0  0  0  0  0  0  0  0  0  0  0  0
   12.7260    0.0059    0.0000 C   0  0  0  0  0  0  0  0  0  0  0  0
   14.0963    0.6160    0.0000 F   0  0  0  0  0  0  0  0  0  0  0  0
   13.3361   -1.3644    0.0000 F   0  0  0  0  0  0  0  0  0  0  0  0
   12.1158    1.3762    0.0000 F   0  0  0  0  0  0  0  0  0  0  0  0
   10.1421    0.2775    0.0000 C   0  0  0  0  0  0  0  0  0  0  0  0
    6.1317    0.0855    0.0000 C   0  0  0  0  0  0  0  0  0  0  0  0
    5.6682   -1.3411    0.0000 C   0  0  0  0  0  0  0  0  0  0  0  0
    3.7500    3.8971    0.0000 C   0  0  0  0  0  0  0  0  0  0  0  0
    3.0000    5.1962    0.0000 C   0  0  0  0  0  0  0  0  0  0  0  0
    2.7395    6.6734    0.0000 C   0  0  0  0  0  0  0  0  0  0  0  0
    4.4095    5.7092    0.0000 C   0  0  0  0  0  0  0  0  0  0  0  0
    1.5000    5.1962    0.0000 C   0  0  0  0  0  0  0  0  0  0  0  0
    0.7500    3.8971    0.0000 C   0  0  0  0  0  0  0  0  0  0  0  0
  1  2  1  0
  2  3  1  0
  3  4  2  0
  4  5  1  0
  5  6  1  0
  5  7  2  0
  7  8  1  0
  8  9  1  0
  8 10  1  0
  7 11  1  0
 11 12  2  0
 12 13  1  0
 13 14  2  0
 14 15  1  0
 15 16  1  0
 16 17  1  0
 17 18  2  0
 17 19  1  0
 19 20  1  0
 20 21  1  6
 21 22  2  0
 22 23  1  0
 23 24  1  0
 24 25  1  0
 24 26  1  0
 24 27  1  0
 23 28  2  0
 28 29  1  0
 29 30  1  0
 30 31  1  0
 30 32  1  0
 30 33  1  0
 29 34  2  0
 20 35  1  0
 35 36  1  6
 14 37  1  0
 37 38  1  0
 38 39  1  0
 38 40  1  0
 38 41  1  0
 41 42  1  0
 12  3  1  0
 42 13  1  0
 35 16  1  0
 34 21  1  0
M  END
>  <Synonyms>  (319) 
CKD-519|ROCACETRAPIB

>  <Research Codes>  (319) 
CKD-519

>  <Phase>  (319) 
1

>  <Applicants>  (319) 
nan

>  <USAN Stem>  (319) 
'-cetrapib'

>  <USAN Year>  (319) 
nan

>  <USAN Stem Definition>  (319) 
cholesterol ester transfer protein inhibitors

>  <USAN Stem Substem>  (319) 
'-cetrapib(-cetrapib)'

>  <First Approval>  (319) 
nan

>  <ATC Codes>  (319) 
nan

>  <Level 4 ATC Codes>  (319) 
nan

>  <Level 3 ATC Codes>  (319) 
nan

>  <Level 2 ATC Codes>  (319) 
nan

>  <Level 1 ATC Codes>  (319) 
nan

>  <Indication Class>  (319) 
nan

>  <Patent>  (319) 
nan

>  <Drug Type>  (319) 
1:Synthetic Small Molecule

>  <Passes Rule of Five>  (319) 
False

>  <First In Class>  (319) 
False

>  <Chirality>  (319) 
Single Stereoisomer

>  <Prodrug>  (319) 
False

>  <Oral>  (319) 
False

>  <Parenteral>  (319) 
False

>  <Topical>  (319) 
False

>  <Black Box>  (319) 
False

>  <Availability Type>  (319) 
Unknown

>  <Withdrawn Year>  (319) 
nan

>  <Withdrawn Reason>  (319) 
nan

>  <Withdrawn Country>  (319) 
nan

>  <Withdrawn Class>  (319) 
nan

>  <SMILES>  (319) 
COc1cc(F)c(C(C)C)cc1C1=C(CN2C(=O)O[C@H](c3cc(C(F)(F)F)cc(C(F)(F)F)c3)[C@@H]2C)CC(C)(C)CC1

>  <InChi Key>  (319) 
GBHPDJQHZADVAA-SOKVYYICSA-N

$$$$
CHEMBL4297631
     RDKit          2D

 43 45  0  0  0  0  0  0  0  0999 V2000
  -33.4628    3.5721    0.0000 C   0  0  0  0  0  0  0  0  0  0  0  0
  -32.0363    4.0356    0.0000 C   0  0  0  0  0  0  0  0  0  0  0  0
  -30.9215    3.0319    0.0000 C   0  0  0  0  0  0  0  0  0  0  0  0
  -29.4950    3.4955    0.0000 C   0  0  0  0  0  0  0  0  0  0  0  0
  -28.3802    2.4918    0.0000 C   0  0  0  0  0  0  0  0  0  0  0  0
  -26.9537    2.9553    0.0000 C   0  0  0  0  0  0  0  0  0  0  0  0
  -25.8389    1.9516    0.0000 C   0  0  0  0  0  0  0  0  0  0  0  0
  -24.4124    2.4151    0.0000 C   0  0  0  0  0  0  0  0  0  0  0  0
  -23.2976    1.4114    0.0000 C   0  0  0  0  0  0  0  0  0  0  0  0
  -21.8711    1.8749    0.0000 C   0  0  0  0  0  0  0  0  0  0  0  0
  -20.7563    0.8712    0.0000 C   0  0  0  0  0  0  0  0  0  0  0  0
  -19.3298    1.3348    0.0000 C   0  0  0  0  0  0  0  0  0  0  0  0
  -18.2150    0.3311    0.0000 C   0  0  0  0  0  0  0  0  0  0  0  0
  -16.7884    0.7946    0.0000 C   0  0  0  0  0  0  0  0  0  0  0  0
  -15.6737   -0.2091    0.0000 C   0  0  0  0  0  0  0  0  0  0  0  0
  -14.2471    0.2544    0.0000 C   0  0  0  0  0  0  0  0  0  0  0  0
  -13.1324   -0.7493    0.0000 C   0  0  0  0  0  0  0  0  0  0  0  0
  -11.7058   -0.2857    0.0000 C   0  0  0  0  0  0  0  0  0  0  0  0
  -11.3940    1.1815    0.0000 O   0  0  0  0  0  0  0  0  0  0  0  0
  -10.5911   -1.2894    0.0000 N   0  0  0  0  0  0  0  0  0  0  0  0
   -9.1645   -0.8259    0.0000 C   0  0  0  0  0  0  0  0  0  0  0  0
   -8.0498   -1.8296    0.0000 C   0  0  0  0  0  0  0  0  0  0  0  0
   -6.6232   -1.3661    0.0000 C   0  0  0  0  0  0  0  0  0  0  0  0
   -5.5085   -2.3698    0.0000 C   0  0  0  0  0  0  0  0  0  0  0  0
   -4.0819   -1.9062    0.0000 O   0  0  0  0  0  0  0  0  0  0  0  0
   -2.9672   -2.9099    0.0000 N   0  0  0  0  0  0  0  0  0  0  0  0
   -3.1240   -4.4017    0.0000 C   0  0  0  0  0  0  0  0  0  0  0  0
   -4.4231   -5.1517    0.0000 C   0  0  0  0  0  0  0  0  0  0  0  0
   -5.7221   -4.4017    0.0000 C   0  0  0  0  0  0  0  0  0  0  0  0
   -7.0211   -5.1517    0.0000 C   0  0  0  0  0  0  0  0  0  0  0  0
   -8.3202   -4.4017    0.0000 C   0  0  0  0  0  0  0  0  0  0  0  0
   -1.7537   -5.0118    0.0000 N   0  0  0  0  0  0  0  0  0  0  0  0
   -0.7500   -3.8971    0.0000 C   0  0  0  0  0  0  0  0  0  0  0  0
    0.7500   -3.8971    0.0000 C   0  0  0  0  0  0  0  0  0  0  0  0
    1.5000   -5.1962    0.0000 N   0  0  0  0  0  0  0  0  0  0  0  0
    1.5000   -2.5981    0.0000 N   0  0  0  0  0  0  0  0  0  0  0  0
    0.7500   -1.2990    0.0000 C   0  0  0  0  0  0  0  0  0  0  0  0
    1.5000    0.0000    0.0000 C   0  0  0  0  0  0  0  0  0  0  0  0
    0.7500    1.2990    0.0000 C   0  0  0  0  0  0  0  0  0  0  0  0
   -0.7500    1.2990    0.0000 C   0  0  0  0  0  0  0  0  0  0  0  0
   -1.5000    0.0000    0.0000 C   0  0  0  0  0  0  0  0  0  0  0  0
   -0.7500   -1.2990    0.0000 C   0  0  0  0  0  0  0  0  0  0  0  0
   -1.5000   -2.5981    0.0000 C   0  0  0  0  0  0  0  0  0  0  0  0
  1  2  1  0
  2  3  1  0
  3  4  1  0
  4  5  1  0
  5  6  1  0
  6  7  1  0
  7  8  1  0
  8  9  1  0
  9 10  1  0
 10 11  1  0
 11 12  1  0
 12 13  1  0
 13 14  1  0
 14 15  1  0
 15 16  1  0
 16 17  1  0
 17 18  1  0
 18 19  2  0
 18 20  1  0
 20 21  1  0
 21 22  1  0
 22 23  1  0
 23 24  1  0
 24 25  1  0
 25 26  1  0
 26 27  1  0
 27 28  1  0
 28 29  1  0
 29 30  1  0
 30 31  1  0
 27 32  2  0
 32 33  1  0
 33 34  1  0
 34 35  2  0
 34 36  1  0
 36 37  1  0
 37 38  2  0
 38 39  1  0
 39 40  2  0
 40 41  1  0
 41 42  2  0
 42 43  1  0
 43 26  1  0
 43 33  2  0
 42 37  1  0
M  END
>  <Synonyms>  (320) 
3M-052|MEDI 9197|MEDI9197|TELRATOLIMOD

>  <Research Codes>  (320) 
3M-052|MEDI9197

>  <Phase>  (320) 
1

>  <Applicants>  (320) 
nan

>  <USAN Stem>  (320) 
'-imod'

>  <USAN Year>  (320) 
nan

>  <USAN Stem Definition>  (320) 
immunomodulators: toll-like receptor agonist

>  <USAN Stem Substem>  (320) 
'-imod(-imod (-tolimod))'

>  <First Approval>  (320) 
nan

>  <ATC Codes>  (320) 
nan

>  <Level 4 ATC Codes>  (320) 
nan

>  <Level 3 ATC Codes>  (320) 
nan

>  <Level 2 ATC Codes>  (320) 
nan

>  <Level 1 ATC Codes>  (320) 
nan

>  <Indication Class>  (320) 
nan

>  <Patent>  (320) 
nan

>  <Drug Type>  (320) 
1:Synthetic Small Molecule

>  <Passes Rule of Five>  (320) 
False

>  <First In Class>  (320) 
False

>  <Chirality>  (320) 
Achiral Molecule

>  <Prodrug>  (320) 
False

>  <Oral>  (320) 
False

>  <Parenteral>  (320) 
False

>  <Topical>  (320) 
False

>  <Black Box>  (320) 
False

>  <Availability Type>  (320) 
Unknown

>  <Withdrawn Year>  (320) 
nan

>  <Withdrawn Reason>  (320) 
nan

>  <Withdrawn Country>  (320) 
nan

>  <Withdrawn Class>  (320) 
nan

>  <SMILES>  (320) 
CCCCCCCCCCCCCCCCCC(=O)NCCCCOn1c(CCCC)nc2c(N)nc3ccccc3c21

>  <InChi Key>  (320) 
RRTPWQXEERTRRK-UHFFFAOYSA-N

$$$$
CHEMBL4297471
     RDKit          2D

 37 41  0  0  0  0  0  0  0  0999 V2000
    3.0000  -10.3923    0.0000 C   0  0  0  0  0  0  0  0  0  0  0  0
    1.5000  -10.3923    0.0000 C   0  0  0  0  0  0  0  0  0  0  0  0
    0.7500  -11.6913    0.0000 C   0  0  0  0  0  0  0  0  0  0  0  0
   -0.7500  -11.6913    0.0000 C   0  0  0  0  0  0  0  0  0  0  0  0
   -1.5000  -12.9904    0.0000 O   0  0  0  0  0  0  0  0  0  0  0  0
   -3.0000  -12.9904    0.0000 C   0  0  0  0  0  0  0  0  0  0  0  0
   -3.7500  -14.2894    0.0000 C   0  0  0  0  0  0  0  0  0  0  0  0
   -5.2500  -14.2894    0.0000 C   0  0  0  0  0  0  0  0  0  0  0  0
   -6.0000  -15.5885    0.0000 S   0  0  0  0  0  0  0  0  0  0  0  0
   -6.7500  -16.8875    0.0000 C   0  0  0  0  0  0  0  0  0  0  0  0
   -4.7010  -16.3385    0.0000 O   0  0  0  0  0  0  0  0  0  0  0  0
   -7.2990  -14.8385    0.0000 O   0  0  0  0  0  0  0  0  0  0  0  0
   -1.5000  -10.3923    0.0000 C   0  0  0  0  0  0  0  0  0  0  0  0
   -0.7500   -9.0933    0.0000 C   0  0  0  0  0  0  0  0  0  0  0  0
   -1.5000   -7.7942    0.0000 C   0  0  0  0  0  0  0  0  0  0  0  0
    0.7500   -9.0933    0.0000 C   0  0  0  0  0  0  0  0  0  0  0  0
    1.5000   -7.7942    0.0000 C   0  0  0  0  0  0  0  0  0  0  0  0
    3.0000   -7.7942    0.0000 C   0  0  0  0  0  0  0  0  0  0  0  0
    3.7500   -6.4952    0.0000 C   0  0  0  0  0  0  0  0  0  0  0  0
    3.0000   -5.1962    0.0000 C   0  0  0  0  0  0  0  0  0  0  0  0
    1.5000   -5.1962    0.0000 C   0  0  0  0  0  0  0  0  0  0  0  0
    0.7500   -3.8971    0.0000 C   0  0  0  0  0  0  0  0  0  0  0  0
    1.5000   -2.5981    0.0000 O   0  0  0  0  0  0  0  0  0  0  0  0
    0.7500   -1.2990    0.0000 C   0  0  0  0  0  0  0  0  0  0  0  0
    1.5000    0.0000    0.0000 C   0  0  0  0  0  0  0  0  0  0  0  0
    0.7500    1.2990    0.0000 C   0  0  0  0  0  0  0  0  0  0  0  0
   -0.7500    1.2990    0.0000 C   0  0  0  0  0  0  0  0  0  0  0  0
   -1.5000    0.0000    0.0000 C   0  0  0  0  0  0  0  0  0  0  0  0
   -0.7500   -1.2990    0.0000 N   0  0  0  0  0  0  0  0  0  0  0  0
   -1.2135    2.7256    0.0000 C   0  0  0  0  0  0  0  0  0  0  0  0
   -1.3703    4.2174    0.0000 C   0  0  0  0  0  0  0  0  0  0  0  0
   -2.2520    5.4309    0.0000 C   0  0  0  0  0  0  0  0  0  0  0  0
   -3.7438    5.2741    0.0000 O   0  0  0  0  0  0  0  0  0  0  0  0
   -1.6419    6.8012    0.0000 O   0  0  0  0  0  0  0  0  0  0  0  0
    0.0000    3.6073    0.0000 C   0  0  0  0  0  0  0  0  0  0  0  0
    1.2135    2.7256    0.0000 C   0  0  0  0  0  0  0  0  0  0  0  0
    0.7500   -6.4952    0.0000 C   0  0  0  0  0  0  0  0  0  0  0  0
  1  2  1  0
  2  3  2  0
  3  4  1  0
  4  5  1  0
  5  6  1  0
  6  7  1  0
  7  8  1  0
  8  9  1  0
  9 10  1  0
  9 11  2  0
  9 12  2  0
  4 13  2  0
 13 14  1  0
 14 15  1  0
 14 16  2  0
 16 17  1  0
 17 18  2  0
 18 19  1  0
 19 20  2  0
 20 21  1  0
 21 22  1  0
 22 23  1  0
 23 24  1  0
 24 25  2  0
 25 26  1  0
 26 27  2  0
 27 28  1  0
 28 29  2  0
 27 30  1  0
 30 31  1  6
 31 32  1  0
 32 33  2  0
 32 34  1  0
 31 35  1  0
 35 36  1  6
 21 37  2  0
 16  2  1  0
 37 17  1  0
 29 24  1  0
 35 30  1  0
 36 26  1  0
M  END
>  <Synonyms>  (321) 
MK-8666

>  <Research Codes>  (321) 
MK-8666

>  <Phase>  (321) 
1

>  <Applicants>  (321) 
nan

>  <USAN Stem>  (321) 
nan

>  <USAN Year>  (321) 
nan

>  <USAN Stem Definition>  (321) 
nan

>  <USAN Stem Substem>  (321) 
nan

>  <First Approval>  (321) 
nan

>  <ATC Codes>  (321) 
nan

>  <Level 4 ATC Codes>  (321) 
nan

>  <Level 3 ATC Codes>  (321) 
nan

>  <Level 2 ATC Codes>  (321) 
nan

>  <Level 1 ATC Codes>  (321) 
nan

>  <Indication Class>  (321) 
nan

>  <Patent>  (321) 
nan

>  <Drug Type>  (321) 
1:Synthetic Small Molecule

>  <Passes Rule of Five>  (321) 
False

>  <First In Class>  (321) 
False

>  <Chirality>  (321) 
Single Stereoisomer

>  <Prodrug>  (321) 
False

>  <Oral>  (321) 
False

>  <Parenteral>  (321) 
False

>  <Topical>  (321) 
False

>  <Black Box>  (321) 
False

>  <Availability Type>  (321) 
Unknown

>  <Withdrawn Year>  (321) 
nan

>  <Withdrawn Reason>  (321) 
nan

>  <Withdrawn Country>  (321) 
nan

>  <Withdrawn Class>  (321) 
nan

>  <SMILES>  (321) 
Cc1cc(OCCCS(C)(=O)=O)cc(C)c1-c1cccc(COc2cc3c(cn2)[C@@H]2[C@@H](C(=O)O)[C@@H]2C3)c1

>  <InChi Key>  (321) 
CODQKEMYZZKQAE-AFJRLBRLSA-N

$$$$
CHEMBL4297488
     RDKit          2D

 29 32  0  0  0  0  0  0  0  0999 V2000
    3.5260    1.2990    0.0000 C   0  0  0  0  0  0  0  0  0  0  0  0
    2.7760    0.0000    0.0000 C   0  0  0  0  0  0  0  0  0  0  0  0
    3.5260   -1.2990    0.0000 C   0  0  0  0  0  0  0  0  0  0  0  0
    1.2760    0.0000    0.0000 C   0  0  0  0  0  0  0  0  0  0  0  0
    0.3943    1.2135    0.0000 C   0  0  0  0  0  0  0  0  0  0  0  0
   -1.0323    0.7500    0.0000 N   0  0  0  0  0  0  0  0  0  0  0  0
   -1.0323   -0.7500    0.0000 N   0  0  0  0  0  0  0  0  0  0  0  0
   -2.1470   -1.7537    0.0000 C   0  0  0  0  0  0  0  0  0  0  0  0
   -3.5736   -1.2902    0.0000 N   0  0  0  0  0  0  0  0  0  0  0  0
   -4.6883   -2.2939    0.0000 C   0  0  0  0  0  0  0  0  0  0  0  0
   -6.1149   -1.8303    0.0000 C   0  0  0  0  0  0  0  0  0  0  0  0
   -6.4268   -0.3631    0.0000 C   0  0  0  0  0  0  0  0  0  0  0  0
   -7.8533    0.1004    0.0000 C   0  0  0  0  0  0  0  0  0  0  0  0
   -8.9681   -0.9033    0.0000 C   0  0  0  0  0  0  0  0  0  0  0  0
   -8.6562   -2.3705    0.0000 C   0  0  0  0  0  0  0  0  0  0  0  0
   -7.2296   -2.8340    0.0000 C   0  0  0  0  0  0  0  0  0  0  0  0
   -1.8351   -3.2209    0.0000 C   0  0  0  0  0  0  0  0  0  0  0  0
   -0.4086   -3.6844    0.0000 C   0  0  0  0  0  0  0  0  0  0  0  0
   -0.0967   -5.1517    0.0000 N   0  0  0  0  0  0  0  0  0  0  0  0
   -1.2114   -6.1554    0.0000 C   0  0  0  0  0  0  0  0  0  0  0  0
   -0.8995   -7.6226    0.0000 C   0  0  0  0  0  0  0  0  0  0  0  0
   -2.0143   -8.6263    0.0000 C   0  0  0  0  0  0  0  0  0  0  0  0
   -1.7024  -10.0935    0.0000 C   0  0  0  0  0  0  0  0  0  0  0  0
   -0.2758  -10.5570    0.0000 N   0  0  0  0  0  0  0  0  0  0  0  0
    0.8389   -9.5533    0.0000 C   0  0  0  0  0  0  0  0  0  0  0  0
    0.5271   -8.0861    0.0000 C   0  0  0  0  0  0  0  0  0  0  0  0
    1.6418   -7.0824    0.0000 O   0  0  0  0  0  0  0  0  0  0  0  0
    0.7062   -2.6807    0.0000 N   0  0  0  0  0  0  0  0  0  0  0  0
    0.3943   -1.2135    0.0000 C   0  0  0  0  0  0  0  0  0  0  0  0
  1  2  1  0
  2  3  1  0
  2  4  1  0
  4  5  2  0
  5  6  1  0
  6  7  1  0
  7  8  1  0
  8  9  2  3
  9 10  1  0
 10 11  1  0
 11 12  2  0
 12 13  1  0
 13 14  2  0
 14 15  1  0
 15 16  2  0
  8 17  1  0
 17 18  2  0
 18 19  1  0
 19 20  1  0
 21 20  1  6
 21 22  1  0
 22 23  1  0
 23 24  1  0
 24 25  1  0
 25 26  1  0
 26 27  1  1
 18 28  1  0
 28 29  2  0
 29  4  1  0
 29  7  1  0
 16 11  1  0
 26 21  1  0
M  END
>  <Synonyms>  (322) 
CT-7001|CT7001|ICEC-0942|ICEC0942

>  <Research Codes>  (322) 
CT-7001|CT7001|ICEC-0942|ICEC0942

>  <Phase>  (322) 
1

>  <Applicants>  (322) 
nan

>  <USAN Stem>  (322) 
nan

>  <USAN Year>  (322) 
nan

>  <USAN Stem Definition>  (322) 
nan

>  <USAN Stem Substem>  (322) 
nan

>  <First Approval>  (322) 
nan

>  <ATC Codes>  (322) 
nan

>  <Level 4 ATC Codes>  (322) 
nan

>  <Level 3 ATC Codes>  (322) 
nan

>  <Level 2 ATC Codes>  (322) 
nan

>  <Level 1 ATC Codes>  (322) 
nan

>  <Indication Class>  (322) 
nan

>  <Patent>  (322) 
nan

>  <Drug Type>  (322) 
1:Synthetic Small Molecule

>  <Passes Rule of Five>  (322) 
True

>  <First In Class>  (322) 
False

>  <Chirality>  (322) 
Single Stereoisomer

>  <Prodrug>  (322) 
False

>  <Oral>  (322) 
False

>  <Parenteral>  (322) 
False

>  <Topical>  (322) 
False

>  <Black Box>  (322) 
False

>  <Availability Type>  (322) 
Unknown

>  <Withdrawn Year>  (322) 
nan

>  <Withdrawn Reason>  (322) 
nan

>  <Withdrawn Country>  (322) 
nan

>  <Withdrawn Class>  (322) 
nan

>  <SMILES>  (322) 
CC(C)c1cnn2c(NCc3ccccc3)cc(NC[C@H]3CCNC[C@@H]3O)nc12

>  <InChi Key>  (322) 
WPTDFQICNWPUPP-MJGOQNOKSA-N

$$$$
CHEMBL4297629
     RDKit          2D

 34 38  0  0  0  0  0  0  0  0999 V2000
    7.5000  -10.3923    0.0000 C   0  0  0  0  0  0  0  0  0  0  0  0
    8.2500   -9.0933    0.0000 O   0  0  0  0  0  0  0  0  0  0  0  0
    7.5000   -7.7942    0.0000 C   0  0  0  0  0  0  0  0  0  0  0  0
    6.0000   -7.7942    0.0000 C   0  0  0  0  0  0  0  0  0  0  0  0
    5.2500   -6.4952    0.0000 C   0  0  0  0  0  0  0  0  0  0  0  0
    6.0000   -5.1962    0.0000 C   0  0  0  0  0  0  0  0  0  0  0  0
    5.2500   -3.8971    0.0000 C   0  0  0  0  0  0  0  0  0  0  0  0
    6.0000   -2.5981    0.0000 O   0  0  0  0  0  0  0  0  0  0  0  0
    3.7500   -3.8971    0.0000 C   0  0  0  0  0  0  0  0  0  0  0  0
    3.0000   -2.5981    0.0000 C   0  0  0  0  0  0  0  0  0  0  0  0
    1.5000   -2.5981    0.0000 C   0  0  0  0  0  0  0  0  0  0  0  0
    0.7500   -1.2990    0.0000 C   0  0  0  0  0  0  0  0  0  0  0  0
    1.5000    0.0000    0.0000 N   0  0  0  0  0  0  0  0  0  0  0  0
    0.7500    1.2990    0.0000 C   0  0  0  0  0  0  0  0  0  0  0  0
   -0.7500    1.2990    0.0000 N   0  0  0  0  0  0  0  0  0  0  0  0
   -1.5000    0.0000    0.0000 C   0  0  0  0  0  0  0  0  0  0  0  0
   -3.0000    0.0000    0.0000 C   0  0  0  0  0  0  0  0  0  0  0  0
   -3.7500   -1.2990    0.0000 C   0  0  0  0  0  0  0  0  0  0  0  0
   -5.2500   -1.2990    0.0000 N   0  0  0  0  0  0  0  0  0  0  0  0
   -6.0000    0.0000    0.0000 C   0  0  0  0  0  0  0  0  0  0  0  0
   -7.5000   -0.0000    0.0000 C   0  0  0  0  0  0  0  0  0  0  0  0
   -8.2500   -1.2990    0.0000 O   0  0  0  0  0  0  0  0  0  0  0  0
   -7.5000   -2.5981    0.0000 C   0  0  0  0  0  0  0  0  0  0  0  0
   -6.0000   -2.5981    0.0000 C   0  0  0  0  0  0  0  0  0  0  0  0
   -3.0000   -2.5981    0.0000 C   0  0  0  0  0  0  0  0  0  0  0  0
   -1.5000   -2.5981    0.0000 C   0  0  0  0  0  0  0  0  0  0  0  0
   -0.7500   -1.2990    0.0000 C   0  0  0  0  0  0  0  0  0  0  0  0
    0.7500   -3.8971    0.0000 C   0  0  0  0  0  0  0  0  0  0  0  0
   -0.7500   -3.8971    0.0000 F   0  0  0  0  0  0  0  0  0  0  0  0
    1.5000   -5.1962    0.0000 C   0  0  0  0  0  0  0  0  0  0  0  0
    3.0000   -5.1962    0.0000 C   0  0  0  0  0  0  0  0  0  0  0  0
    3.7500   -6.4952    0.0000 Cl  0  0  0  0  0  0  0  0  0  0  0  0
    7.5000   -5.1962    0.0000 N   0  0  0  0  0  0  0  0  0  0  0  0
    8.2500   -6.4952    0.0000 N   0  0  0  0  0  0  0  0  0  0  0  0
  1  2  1  0
  2  3  1  0
  3  4  2  0
  4  5  1  0
  5  6  2  0
  6  7  1  0
  7  8  1  6
  7  9  1  0
  9 10  2  0
 10 11  1  0
 11 12  1  0
 12 13  2  0
 13 14  1  0
 14 15  2  0
 15 16  1  0
 16 17  2  0
 17 18  1  0
 18 19  1  0
 19 20  1  0
 20 21  1  0
 21 22  1  0
 22 23  1  0
 23 24  1  0
 18 25  2  0
 25 26  1  0
 26 27  2  0
 11 28  2  0
 28 29  1  0
 28 30  1  0
 30 31  2  0
 31 32  1  0
  6 33  1  0
 33 34  2  0
 34  3  1  0
 31  9  1  0
 27 12  1  0
 27 16  1  0
 24 19  1  0
M  END
>  <Synonyms>  (323) 
M-3814|M3814|MSC 2490484A|MSC-2490484A|MSC2490484A|NEDISERTIB

>  <Research Codes>  (323) 
M-3814|M3814|MSC 2490484A|MSC-2490484A|MSC2490484A

>  <Phase>  (323) 
1

>  <Applicants>  (323) 
nan

>  <USAN Stem>  (323) 
'-sertib'

>  <USAN Year>  (323) 
nan

>  <USAN Stem Definition>  (323) 
serine/threonine kinase inhibitors

>  <USAN Stem Substem>  (323) 
'-sertib(-sertib)'

>  <First Approval>  (323) 
nan

>  <ATC Codes>  (323) 
nan

>  <Level 4 ATC Codes>  (323) 
nan

>  <Level 3 ATC Codes>  (323) 
nan

>  <Level 2 ATC Codes>  (323) 
nan

>  <Level 1 ATC Codes>  (323) 
nan

>  <Indication Class>  (323) 
nan

>  <Patent>  (323) 
nan

>  <Drug Type>  (323) 
1:Synthetic Small Molecule

>  <Passes Rule of Five>  (323) 
True

>  <First In Class>  (323) 
False

>  <Chirality>  (323) 
Single Stereoisomer

>  <Prodrug>  (323) 
False

>  <Oral>  (323) 
False

>  <Parenteral>  (323) 
False

>  <Topical>  (323) 
False

>  <Black Box>  (323) 
False

>  <Availability Type>  (323) 
Unknown

>  <Withdrawn Year>  (323) 
nan

>  <Withdrawn Reason>  (323) 
nan

>  <Withdrawn Country>  (323) 
nan

>  <Withdrawn Class>  (323) 
nan

>  <SMILES>  (323) 
COc1ccc([C@@H](O)c2cc(-c3ncnc4cc(N5CCOCC5)ccc34)c(F)cc2Cl)nn1

>  <InChi Key>  (323) 
MOWXJLUYGFNTAL-DEOSSOPVSA-N

$$$$
CHEMBL4297475
     RDKit          2D

 65 74  0  0  0  0  0  0  0  0999 V2000
   -3.7500   -1.2990    0.0000 C   0  0  0  0  0  0  0  0  0  0  0  0
   -3.0000   -2.5981    0.0000 C   0  0  0  0  0  0  0  0  0  0  0  0
   -1.5000   -2.5981    0.0000 C   0  0  0  0  0  0  0  0  0  0  0  0
   -0.7500   -3.8971    0.0000 C   0  0  0  0  0  0  0  0  0  0  0  0
    0.7500   -3.8971    0.0000 C   0  0  0  0  0  0  0  0  0  0  0  0
    1.5000   -2.5981    0.0000 N   0  0  0  0  0  0  0  0  0  0  0  0
    0.7500   -1.2990    0.0000 C   0  0  0  0  0  0  0  0  0  0  0  0
    1.5000    0.0000    0.0000 C   0  0  0  0  0  0  0  0  0  0  0  0
    0.7500    1.2990    0.0000 C   0  0  0  0  0  0  0  0  0  0  0  0
   -0.7500    1.2990    0.0000 C   0  0  0  0  0  0  0  0  0  0  0  0
   -1.5000    2.5981    0.0000 O   0  0  0  0  0  0  0  0  0  0  0  0
   -0.7500    3.8971    0.0000 C   0  0  0  0  0  0  0  0  0  0  0  0
    0.7500    3.8971    0.0000 O   0  0  0  0  0  0  0  0  0  0  0  0
   -1.5000    5.1962    0.0000 N   0  0  0  0  0  0  0  0  0  0  0  0
   -0.7500    6.4952    0.0000 C   0  0  0  0  0  0  0  0  0  0  0  0
   -1.5000    7.7942    0.0000 C   0  0  0  0  0  0  0  0  0  0  0  0
   -3.0000    7.7942    0.0000 C   0  0  0  0  0  0  0  0  0  0  0  0
   -3.7500    9.0933    0.0000 C   0  0  0  0  0  0  0  0  0  0  0  0
   -3.0000   10.3923    0.0000 C   0  0  0  0  0  0  0  0  0  0  0  0
   -3.7500   11.6913    0.0000 N   0  0  0  0  0  0  0  0  0  0  0  0
   -5.2418   11.8481    0.0000 C   0  0  0  0  0  0  0  0  0  0  0  0
   -5.5537   13.3154    0.0000 C   0  0  0  0  0  0  0  0  0  0  0  0
   -4.2546   14.0654    0.0000 C   0  0  0  0  0  0  0  0  0  0  0  0
   -3.9427   15.5326    0.0000 C   0  0  0  0  0  0  0  0  0  0  0  0
   -2.5162   15.9961    0.0000 C   0  0  0  0  0  0  0  0  0  0  0  0
   -2.2043   17.4633    0.0000 N   0  0  0  0  0  0  0  0  0  0  0  0
   -3.2080   18.5780    0.0000 C   0  0  0  0  0  0  0  0  0  0  0  0
   -4.6998   18.4212    0.0000 C   0  0  0  0  0  0  0  0  0  0  0  0
   -5.3099   17.0509    0.0000 C   0  0  0  0  0  0  0  0  0  0  0  0
   -6.8017   16.8941    0.0000 C   0  0  0  0  0  0  0  0  0  0  0  0
   -7.4118   15.5238    0.0000 C   0  0  0  0  0  0  0  0  0  0  0  0
   -6.5301   14.3103    0.0000 C   0  0  0  0  0  0  0  0  0  0  0  0
   -8.9035   15.3670    0.0000 C   0  0  0  0  0  0  0  0  0  0  0  0
   -7.6833   18.1077    0.0000 C   0  0  0  0  0  0  0  0  0  0  0  0
   -9.1751   17.9509    0.0000 O   0  0  0  0  0  0  0  0  0  0  0  0
   -7.0732   19.4780    0.0000 C   0  0  0  0  0  0  0  0  0  0  0  0
   -5.5814   19.6348    0.0000 C   0  0  0  0  0  0  0  0  0  0  0  0
   -4.9713   21.0051    0.0000 O   0  0  0  0  0  0  0  0  0  0  0  0
   -2.4580   19.8771    0.0000 N   0  0  0  0  0  0  0  0  0  0  0  0
   -0.9908   19.5652    0.0000 N   0  0  0  0  0  0  0  0  0  0  0  0
   -0.8340   18.0734    0.0000 C   0  0  0  0  0  0  0  0  0  0  0  0
    0.4651   17.3234    0.0000 O   0  0  0  0  0  0  0  0  0  0  0  0
   -1.4014   14.9924    0.0000 C   0  0  0  0  0  0  0  0  0  0  0  0
   -1.7133   13.5252    0.0000 C   0  0  0  0  0  0  0  0  0  0  0  0
   -3.1399   13.0617    0.0000 C   0  0  0  0  0  0  0  0  0  0  0  0
   -3.7500    6.4952    0.0000 C   0  0  0  0  0  0  0  0  0  0  0  0
   -3.0000    5.1962    0.0000 C   0  0  0  0  0  0  0  0  0  0  0  0
   -1.5000    0.0000    0.0000 C   0  0  0  0  0  0  0  0  0  0  0  0
   -0.7500   -1.2990    0.0000 C   0  0  0  0  0  0  0  0  0  0  0  0
    1.2135   -5.3237    0.0000 C   0  0  0  0  0  0  0  0  0  0  0  0
    2.5838   -5.9338    0.0000 C   0  0  0  0  0  0  0  0  0  0  0  0
    2.7406   -7.4256    0.0000 C   0  0  0  0  0  0  0  0  0  0  0  0
    1.5271   -8.3073    0.0000 C   0  0  0  0  0  0  0  0  0  0  0  0
    0.1568   -7.6972    0.0000 C   0  0  0  0  0  0  0  0  0  0  0  0
   -1.0567   -8.5788    0.0000 O   0  0  0  0  0  0  0  0  0  0  0  0
    0.0000   -6.2054    0.0000 N   0  0  0  0  0  0  0  0  0  0  0  0
   -1.2135   -5.3237    0.0000 C   0  0  0  0  0  0  0  0  0  0  0  0
    1.6839   -9.7990    0.0000 C   0  0  0  0  0  0  0  0  0  0  0  0
    3.0542  -10.4092    0.0000 O   0  0  0  0  0  0  0  0  0  0  0  0
    4.2677   -9.5275    0.0000 C   0  0  0  0  0  0  0  0  0  0  0  0
    5.6381  -10.1376    0.0000 O   0  0  0  0  0  0  0  0  0  0  0  0
    4.1110   -8.0357    0.0000 C   0  0  0  0  0  0  0  0  0  0  0  0
    5.6073   -8.1403    0.0000 O   0  0  0  0  0  0  0  0  0  0  0  0
    4.4738   -6.5802    0.0000 C   0  0  0  0  0  0  0  0  0  0  0  0
    5.9157   -6.1668    0.0000 C   0  0  0  0  0  0  0  0  0  0  0  0
  1  2  1  0
  2  3  1  0
  3  4  2  0
  4  5  1  0
  5  6  2  0
  6  7  1  0
  7  8  2  0
  8  9  1  0
  9 10  2  0
 10 11  1  0
 11 12  1  0
 12 13  2  0
 12 14  1  0
 14 15  1  0
 15 16  1  0
 16 17  1  0
 17 18  1  0
 18 19  1  0
 19 20  1  0
 20 21  1  0
 21 22  2  0
 22 23  1  0
 23 24  2  0
 24 25  1  0
 25 26  1  0
 26 27  1  0
 27 28  1  0
 28 29  2  0
 29 30  1  0
 30 31  1  0
 31 32  1  0
 31 33  1  0
 30 34  2  0
 34 35  1  0
 34 36  1  0
 36 37  2  0
 37 38  1  0
 27 39  2  0
 39 40  1  0
 40 41  1  0
 41 42  2  0
 25 43  2  0
 43 44  1  0
 44 45  2  0
 17 46  1  0
 46 47  1  0
 10 48  1  0
 48 49  2  0
  5 50  1  0
 50 51  2  0
 51 52  1  0
 52 53  2  0
 53 54  1  0
 54 55  2  0
 54 56  1  0
 56 57  1  0
 53 58  1  0
 58 59  1  0
 59 60  1  0
 60 61  2  0
 60 62  1  0
 62 63  1  6
 62 64  1  0
 64 65  1  0
 49  3  1  0
 56 50  1  0
 57  4  1  0
 49  7  1  0
 62 52  1  0
 47 14  1  0
 45 20  1  0
 45 23  1  0
 41 26  1  0
 37 28  1  0
M  END
>  <Synonyms>  (324) 
PEN-866|STA 12-8666

>  <Research Codes>  (324) 
PEN-866|STA 12-8666

>  <Phase>  (324) 
1

>  <Applicants>  (324) 
nan

>  <USAN Stem>  (324) 
nan

>  <USAN Year>  (324) 
nan

>  <USAN Stem Definition>  (324) 
nan

>  <USAN Stem Substem>  (324) 
nan

>  <First Approval>  (324) 
nan

>  <ATC Codes>  (324) 
nan

>  <Level 4 ATC Codes>  (324) 
nan

>  <Level 3 ATC Codes>  (324) 
nan

>  <Level 2 ATC Codes>  (324) 
nan

>  <Level 1 ATC Codes>  (324) 
nan

>  <Indication Class>  (324) 
nan

>  <Patent>  (324) 
nan

>  <Drug Type>  (324) 
7:Natural Product-derived

>  <Passes Rule of Five>  (324) 
False

>  <First In Class>  (324) 
False

>  <Chirality>  (324) 
Single Stereoisomer

>  <Prodrug>  (324) 
False

>  <Oral>  (324) 
False

>  <Parenteral>  (324) 
False

>  <Topical>  (324) 
False

>  <Black Box>  (324) 
False

>  <Availability Type>  (324) 
Unknown

>  <Withdrawn Year>  (324) 
nan

>  <Withdrawn Reason>  (324) 
nan

>  <Withdrawn Country>  (324) 
nan

>  <Withdrawn Class>  (324) 
nan

>  <SMILES>  (324) 
CCc1c2c(nc3ccc(OC(=O)N4CCC(CCn5ccc6cc(-n7c(-c8cc(C(C)C)c(O)cc8O)n[nH]c7=O)ccc65)CC4)cc13)-c1cc3c(c(=O)n1C2)COC(=O)[C@]3(O)CC

>  <InChi Key>  (324) 
QTPZAEAYDWMVJO-GGCSAXROSA-N

$$$$
CHEMBL4297267
     RDKit          2D

 65 71  0  0  0  0  0  0  0  0999 V2000
   -0.4923   -7.9169    0.0000 C   0  0  0  0  0  0  0  0  0  0  0  0
   -1.5529   -6.8562    0.0000 S   0  0  0  0  0  0  0  0  0  0  0  0
   -1.1647   -5.4073    0.0000 C   0  0  0  0  0  0  0  0  0  0  0  0
   -2.2253   -4.3467    0.0000 O   0  0  0  0  0  0  0  0  0  0  0  0
   -1.8371   -2.8978    0.0000 C   0  0  0  0  0  0  0  0  0  0  0  0
   -0.3882   -2.5095    0.0000 C   0  0  0  0  0  0  0  0  0  0  0  0
   -0.0000   -1.0607    0.0000 C   0  0  0  0  0  0  0  0  0  0  0  0
    1.0607    0.0000    0.0000 O   0  0  0  0  0  0  0  0  0  0  0  0
    0.0000    1.0607    0.0000 C   0  0  0  0  0  0  0  0  0  0  0  0
   -1.0607    0.0000    0.0000 C   0  0  0  0  0  0  0  0  0  0  0  0
   -1.8107    1.2990    0.0000 O   0  0  0  0  0  0  0  0  0  0  0  0
   -1.0607    2.5981    0.0000 C   0  0  0  0  0  0  0  0  0  0  0  0
   -1.8107    3.8971    0.0000 C   0  0  0  0  0  0  0  0  0  0  0  0
    0.4393    2.5981    0.0000 O   0  0  0  0  0  0  0  0  0  0  0  0
   -2.5095   -0.3882    0.0000 C   0  0  0  0  0  0  0  0  0  0  0  0
   -3.2595    0.9108    0.0000 C   0  0  0  0  0  0  0  0  0  0  0  0
   -2.3464    2.1008    0.0000 O   0  0  0  0  0  0  0  0  0  0  0  0
   -2.9204    3.4867    0.0000 C   0  0  0  0  0  0  0  0  0  0  0  0
   -4.4076    3.6824    0.0000 O   0  0  0  0  0  0  0  0  0  0  0  0
   -2.0073    4.6767    0.0000 C   0  0  0  0  0  0  0  0  0  0  0  0
   -0.5201    4.4809    0.0000 C   0  0  0  0  0  0  0  0  0  0  0  0
    0.3930    5.6709    0.0000 C   0  0  0  0  0  0  0  0  0  0  0  0
   -0.1810    7.0567    0.0000 C   0  0  0  0  0  0  0  0  0  0  0  0
   -1.6682    7.2525    0.0000 C   0  0  0  0  0  0  0  0  0  0  0  0
   -2.5813    6.0625    0.0000 C   0  0  0  0  0  0  0  0  0  0  0  0
   -4.7084    1.2990    0.0000 C   0  0  0  0  0  0  0  0  0  0  0  0
   -4.9042    2.7862    0.0000 O   0  0  0  0  0  0  0  0  0  0  0  0
   -6.0041    2.0745    0.0000 C   0  0  0  0  0  0  0  0  0  0  0  0
   -7.3899    1.5005    0.0000 C   0  0  0  0  0  0  0  0  0  0  0  0
   -8.5800    2.4136    0.0000 O   0  0  0  0  0  0  0  0  0  0  0  0
   -8.3842    3.9008    0.0000 C   0  0  0  0  0  0  0  0  0  0  0  0
   -6.9984    4.4748    0.0000 O   0  0  0  0  0  0  0  0  0  0  0  0
   -9.5742    4.8139    0.0000 C   0  0  0  0  0  0  0  0  0  0  0  0
  -10.9600    4.2399    0.0000 O   0  0  0  0  0  0  0  0  0  0  0  0
   -9.3784    6.3011    0.0000 C   0  0  0  0  0  0  0  0  0  0  0  0
   -7.9926    6.8751    0.0000 N   0  0  0  0  0  0  0  0  0  0  0  0
   -7.7968    8.3623    0.0000 C   0  0  0  0  0  0  0  0  0  0  0  0
   -8.9868    9.2754    0.0000 O   0  0  0  0  0  0  0  0  0  0  0  0
   -6.4110    8.9363    0.0000 C   0  0  0  0  0  0  0  0  0  0  0  0
   -5.2210    8.0232    0.0000 C   0  0  0  0  0  0  0  0  0  0  0  0
   -3.8351    8.5972    0.0000 C   0  0  0  0  0  0  0  0  0  0  0  0
   -3.6394   10.0843    0.0000 C   0  0  0  0  0  0  0  0  0  0  0  0
   -4.8294   10.9975    0.0000 C   0  0  0  0  0  0  0  0  0  0  0  0
   -6.2152   10.4235    0.0000 C   0  0  0  0  0  0  0  0  0  0  0  0
  -10.5685    7.2142    0.0000 C   0  0  0  0  0  0  0  0  0  0  0  0
  -10.3727    8.7014    0.0000 C   0  0  0  0  0  0  0  0  0  0  0  0
  -11.5627    9.6145    0.0000 C   0  0  0  0  0  0  0  0  0  0  0  0
  -12.9485    9.0405    0.0000 C   0  0  0  0  0  0  0  0  0  0  0  0
  -13.1443    7.5533    0.0000 C   0  0  0  0  0  0  0  0  0  0  0  0
  -11.9543    6.6402    0.0000 C   0  0  0  0  0  0  0  0  0  0  0  0
   -7.5857    0.0133    0.0000 C   0  0  0  0  0  0  0  0  0  0  0  0
   -8.9716   -0.5607    0.0000 C   0  0  0  0  0  0  0  0  0  0  0  0
   -6.3957   -0.8999    0.0000 C   0  0  0  0  0  0  0  0  0  0  0  0
   -5.6457   -2.1989    0.0000 C   0  0  0  0  0  0  0  0  0  0  0  0
   -6.5588   -3.3889    0.0000 O   0  0  0  0  0  0  0  0  0  0  0  0
   -5.9848   -4.7747    0.0000 C   0  0  0  0  0  0  0  0  0  0  0  0
   -6.8980   -5.9648    0.0000 C   0  0  0  0  0  0  0  0  0  0  0  0
   -4.4977   -4.9705    0.0000 O   0  0  0  0  0  0  0  0  0  0  0  0
   -4.1968   -2.5871    0.0000 C   0  0  0  0  0  0  0  0  0  0  0  0
   -4.0010   -4.0743    0.0000 O   0  0  0  0  0  0  0  0  0  0  0  0
   -2.8978   -1.8371    0.0000 C   0  0  0  0  0  0  0  0  0  0  0  0
   -3.0936   -3.3243    0.0000 C   0  0  0  0  0  0  0  0  0  0  0  0
   -6.0075    0.5490    0.0000 C   0  0  0  0  0  0  0  0  0  0  0  0
   -7.0685    0.8136    0.0000 C   0  0  0  0  0  0  0  0  0  0  0  0
   -6.7348    1.8609    0.0000 C   0  0  0  0  0  0  0  0  0  0  0  0
  1  2  1  0
  2  3  1  0
  3  4  1  0
  5  4  1  6
  5  6  1  0
  7  6  1  6
  7  8  1  0
  8  9  1  0
  9 10  1  0
 10 11  1  1
 11 12  1  0
 12 13  1  0
 12 14  2  0
 10 15  1  0
 15 16  1  6
 16 17  1  1
 17 18  1  0
 18 19  2  0
 18 20  1  0
 20 21  2  0
 21 22  1  0
 22 23  2  0
 23 24  1  0
 24 25  2  0
 16 26  1  0
 26 27  1  6
 26 28  1  0
 28 29  1  0
 29 30  1  1
 30 31  1  0
 31 32  2  0
 31 33  1  0
 33 34  1  0
 33 35  1  0
 35 36  1  0
 36 37  1  0
 37 38  2  0
 37 39  1  0
 39 40  2  0
 40 41  1  0
 41 42  2  0
 42 43  1  0
 43 44  2  0
 35 45  1  0
 45 46  2  0
 46 47  1  0
 47 48  2  0
 48 49  1  0
 49 50  2  0
 29 51  1  0
 51 52  1  0
 51 53  2  0
 53 54  1  0
 54 55  1  0
 55 56  1  0
 56 57  1  0
 56 58  2  0
 54 59  1  0
 59 60  2  0
 59 61  1  0
 61 62  1  6
 53 63  1  0
 63 64  1  0
 63 65  1  0
 61  5  1  0
 10  7  1  0
 61 15  1  0
 25 20  1  0
 63 26  1  0
 44 39  1  0
 50 45  1  0
M  END
>  <Synonyms>  (325) 
7-METHYLTHIOMETHYLPACLITAXEL|BMS-184476

>  <Research Codes>  (325) 
nan

>  <Phase>  (325) 
1

>  <Applicants>  (325) 
nan

>  <USAN Stem>  (325) 
nan

>  <USAN Year>  (325) 
nan

>  <USAN Stem Definition>  (325) 
nan

>  <USAN Stem Substem>  (325) 
nan

>  <First Approval>  (325) 
nan

>  <ATC Codes>  (325) 
nan

>  <Level 4 ATC Codes>  (325) 
nan

>  <Level 3 ATC Codes>  (325) 
nan

>  <Level 2 ATC Codes>  (325) 
nan

>  <Level 1 ATC Codes>  (325) 
nan

>  <Indication Class>  (325) 
nan

>  <Patent>  (325) 
nan

>  <Drug Type>  (325) 
7:Natural Product-derived

>  <Passes Rule of Five>  (325) 
False

>  <First In Class>  (325) 
False

>  <Chirality>  (325) 
Single Stereoisomer

>  <Prodrug>  (325) 
False

>  <Oral>  (325) 
False

>  <Parenteral>  (325) 
False

>  <Topical>  (325) 
False

>  <Black Box>  (325) 
False

>  <Availability Type>  (325) 
Unknown

>  <Withdrawn Year>  (325) 
nan

>  <Withdrawn Reason>  (325) 
nan

>  <Withdrawn Country>  (325) 
nan

>  <Withdrawn Class>  (325) 
nan

>  <SMILES>  (325) 
CSCO[C@H]1C[C@H]2OC[C@@]2(OC(C)=O)[C@H]2[C@H](OC(=O)c3ccccc3)[C@]3(O)C[C@H](OC(=O)[C@H](O)[C@@H](NC(=O)c4ccccc4)c4ccccc4)C(C)=C([C@@H](OC(C)=O)C(=O)[C@]12C)C3(C)C

>  <InChi Key>  (325) 
UBJAHGAUPNGZFF-FQYGWMIKSA-N

$$$$
CHEMBL4297321
     RDKit          2D

 33 33  0  0  0  0  0  0  0  0999 V2000
    7.5000   -4.0981    0.0000 C   0  0  0  0  0  0  0  0  0  0  0  0
    7.5000   -2.5981    0.0000 S   0  0  0  0  0  0  0  0  0  0  0  0
    7.5000   -1.0981    0.0000 O   0  0  0  0  0  0  0  0  0  0  0  0
    9.0000   -2.5981    0.0000 O   0  0  0  0  0  0  0  0  0  0  0  0
    6.0000   -2.5981    0.0000 O   0  0  0  0  0  0  0  0  0  0  0  0
    5.2500   -1.2990    0.0000 C   0  0  0  0  0  0  0  0  0  0  0  0
    3.7500   -1.2990    0.0000 C   0  0  0  0  0  0  0  0  0  0  0  0
    3.0000    0.0000    0.0000 N   0  0  0  0  0  0  0  0  0  0  0  0
    3.7500    1.2990    0.0000 C   0  0  0  0  0  0  0  0  0  0  0  0
    5.2500    1.2990    0.0000 C   0  0  0  0  0  0  0  0  0  0  0  0
    6.0000    2.5981    0.0000 Br  0  0  0  0  0  0  0  0  0  0  0  0
    1.5000    0.0000    0.0000 C   0  0  0  0  0  0  0  0  0  0  0  0
    0.7500   -1.2990    0.0000 C   0  0  0  0  0  0  0  0  0  0  0  0
    1.5000   -2.5981    0.0000 C   0  0  0  0  0  0  0  0  0  0  0  0
    3.0000   -2.5981    0.0000 O   0  0  0  0  0  0  0  0  0  0  0  0
    0.7500   -3.8971    0.0000 N   0  0  0  0  0  0  0  0  0  0  0  0
    1.5000   -5.1962    0.0000 C   0  0  0  0  0  0  0  0  0  0  0  0
    0.7500   -6.4952    0.0000 C   0  0  0  0  0  0  0  0  0  0  0  0
    1.5000   -7.7942    0.0000 O   0  0  0  0  0  0  0  0  0  0  0  0
    0.7500   -9.0933    0.0000 P   0  0  0  0  0  7  0  0  0  0  0  0
    2.0490   -9.8433    0.0000 O   0  0  0  0  0  0  0  0  0  0  0  0
   -0.5490   -8.3433    0.0000 O   0  0  0  0  0  0  0  0  0  0  0  0
   -0.0000  -10.3923    0.0000 O   0  0  0  0  0  0  0  0  0  0  0  0
   -0.7500   -1.2990    0.0000 C   0  0  0  0  0  0  0  0  0  0  0  0
   -1.5000    0.0000    0.0000 C   0  0  0  0  0  0  0  0  0  0  0  0
   -3.0000    0.0000    0.0000 N   0  0  0  0  0  4  0  0  0  0  0  0
   -3.7500    1.2990    0.0000 O   0  0  0  0  0  0  0  0  0  0  0  0
   -3.7500   -1.2990    0.0000 O   0  0  0  0  0  1  0  0  0  0  0  0
   -0.7500    1.2990    0.0000 C   0  0  0  0  0  0  0  0  0  0  0  0
    0.7500    1.2990    0.0000 C   0  0  0  0  0  0  0  0  0  0  0  0
    1.5000    2.5981    0.0000 N   0  0  0  0  0  4  0  0  0  0  0  0
    0.7500    3.8971    0.0000 O   0  0  0  0  0  0  0  0  0  0  0  0
    3.0000    2.5981    0.0000 O   0  0  0  0  0  1  0  0  0  0  0  0
  1  2  1  0
  2  3  2  0
  2  4  2  0
  2  5  1  0
  5  6  1  0
  6  7  1  0
  7  8  1  0
  8  9  1  0
  9 10  1  0
 10 11  1  0
  8 12  1  0
 12 13  2  0
 13 14  1  0
 14 15  2  0
 14 16  1  0
 16 17  1  0
 17 18  1  0
 18 19  1  0
 19 20  1  0
 20 21  2  0
 20 22  2  0
 20 23  1  0
 13 24  1  0
 24 25  2  0
 25 26  1  0
 26 27  2  0
 26 28  1  0
 25 29  1  0
 29 30  2  0
 30 31  1  0
 31 32  2  0
 31 33  1  0
 30 12  1  0
M  CHG  4  26   1  28  -1  31   1  33  -1
M  END
>  <Synonyms>  (326) 
PR 104|PR-104

>  <Research Codes>  (326) 
nan

>  <Phase>  (326) 
1

>  <Applicants>  (326) 
nan

>  <USAN Stem>  (326) 
nan

>  <USAN Year>  (326) 
nan

>  <USAN Stem Definition>  (326) 
nan

>  <USAN Stem Substem>  (326) 
nan

>  <First Approval>  (326) 
nan

>  <ATC Codes>  (326) 
nan

>  <Level 4 ATC Codes>  (326) 
nan

>  <Level 3 ATC Codes>  (326) 
nan

>  <Level 2 ATC Codes>  (326) 
nan

>  <Level 1 ATC Codes>  (326) 
nan

>  <Indication Class>  (326) 
nan

>  <Patent>  (326) 
nan

>  <Drug Type>  (326) 
1:Synthetic Small Molecule

>  <Passes Rule of Five>  (326) 
False

>  <First In Class>  (326) 
False

>  <Chirality>  (326) 
Achiral Molecule

>  <Prodrug>  (326) 
False

>  <Oral>  (326) 
False

>  <Parenteral>  (326) 
False

>  <Topical>  (326) 
False

>  <Black Box>  (326) 
False

>  <Availability Type>  (326) 
Unknown

>  <Withdrawn Year>  (326) 
nan

>  <Withdrawn Reason>  (326) 
nan

>  <Withdrawn Country>  (326) 
nan

>  <Withdrawn Class>  (326) 
nan

>  <SMILES>  (326) 
CS(=O)(=O)OCCN(CCBr)c1c(C(=O)NCCOP(=O)(O)O)cc([N+](=O)[O-])cc1[N+](=O)[O-]

>  <InChi Key>  (326) 
WJRMEKLYEJEPGJ-UHFFFAOYSA-N

$$$$
CHEMBL4297351
     RDKit          2D

 36 40  0  0  0  0  0  0  0  0999 V2000
    6.7500   -1.2990    0.0000 C   0  0  0  0  0  0  0  0  0  0  0  0
    5.2500   -1.2990    0.0000 C   0  0  0  0  0  0  0  0  0  0  0  0
    3.7500   -1.2990    0.0000 C   0  0  0  0  0  0  0  0  0  0  0  0
    3.0000    0.0000    0.0000 O   0  0  0  0  0  0  0  0  0  0  0  0
    1.5000    0.0000    0.0000 C   0  0  0  0  0  0  0  0  0  0  0  0
    0.7500   -1.2990    0.0000 C   0  0  0  0  0  0  0  0  0  0  0  0
   -0.7500   -1.2990    0.0000 C   0  0  0  0  0  0  0  0  0  0  0  0
   -1.5000    0.0000    0.0000 C   0  0  0  0  0  0  0  0  0  0  0  0
   -0.7500    1.2990    0.0000 C   0  0  0  0  0  0  0  0  0  0  0  0
    0.7500    1.2990    0.0000 C   0  0  0  0  0  0  0  0  0  0  0  0
   -1.5000    2.5981    0.0000 C   0  0  0  0  0  0  0  0  0  0  0  0
   -0.7500    3.8971    0.0000 C   0  0  0  0  0  0  0  0  0  0  0  0
    0.7500    3.8971    0.0000 C   0  0  0  0  0  0  0  0  0  0  0  0
    1.5000    5.1962    0.0000 C   0  0  0  0  0  0  0  0  0  0  0  0
    0.7500    6.4952    0.0000 C   0  0  0  0  0  0  0  0  0  0  0  0
    1.5000    7.7942    0.0000 C   0  0  0  0  0  0  0  0  0  0  0  0
    3.0000    7.7942    0.0000 C   0  0  0  0  0  0  0  0  0  0  0  0
    0.7500    9.0933    0.0000 C   0  0  0  0  0  0  0  0  0  0  0  0
   -0.7500    6.4952    0.0000 C   0  0  0  0  0  0  0  0  0  0  0  0
   -1.5000    5.1962    0.0000 C   0  0  0  0  0  0  0  0  0  0  0  0
   -3.0000    2.5981    0.0000 N   0  0  0  0  0  0  0  0  0  0  0  0
   -3.7500    1.2990    0.0000 C   0  0  0  0  0  0  0  0  0  0  0  0
   -5.2500    1.2990    0.0000 O   0  0  0  0  0  0  0  0  0  0  0  0
   -3.0000    0.0000    0.0000 N   0  0  0  0  0  0  0  0  0  0  0  0
   -3.7500   -1.2990    0.0000 C   0  0  0  0  0  0  0  0  0  0  0  0
   -5.2500   -1.2990    0.0000 C   0  0  0  0  0  0  0  0  0  0  0  0
   -6.0000    0.0000    0.0000 C   0  0  0  0  0  0  0  0  0  0  0  0
   -7.5000    0.0000    0.0000 C   0  0  0  0  0  0  0  0  0  0  0  0
   -8.2500   -1.2990    0.0000 C   0  0  0  0  0  0  0  0  0  0  0  0
   -9.7500   -1.2990    0.0000 N   0  0  0  0  0  0  0  0  0  0  0  0
  -10.5000   -2.5981    0.0000 C   0  0  0  0  0  0  0  0  0  0  0  0
  -12.0000   -2.5981    0.0000 Br  0  0  0  0  0  0  0  0  0  0  0  0
   -9.7500   -3.8971    0.0000 C   0  0  0  0  0  0  0  0  0  0  0  0
   -8.2500   -3.8971    0.0000 N   0  0  0  0  0  0  0  0  0  0  0  0
   -7.5000   -2.5981    0.0000 C   0  0  0  0  0  0  0  0  0  0  0  0
   -6.0000   -2.5981    0.0000 C   0  0  0  0  0  0  0  0  0  0  0  0
  1  2  3  0
  2  3  1  0
  3  4  1  0
  4  5  1  0
  5  6  2  0
  6  7  1  0
  7  8  2  0
  8  9  1  0
  9 10  2  0
  9 11  1  0
 11 12  1  0
 12 13  2  0
 13 14  1  0
 14 15  2  0
 15 16  1  0
 16 17  1  0
 16 18  1  0
 15 19  1  0
 19 20  2  0
 11 21  2  0
 21 22  1  0
 22 23  2  0
 22 24  1  0
 24 25  1  0
 25 26  1  0
 26 27  2  0
 27 28  1  0
 28 29  2  0
 29 30  1  0
 30 31  2  0
 31 32  1  0
 31 33  1  0
 33 34  2  0
 34 35  1  0
 35 36  2  0
 10  5  1  0
 20 12  1  0
 36 26  1  0
 24  8  1  0
 35 29  1  0
M  END
>  <Synonyms>  (327) 
ATX-914|AXT914

>  <Research Codes>  (327) 
AXT914

>  <Phase>  (327) 
1

>  <Applicants>  (327) 
nan

>  <USAN Stem>  (327) 
nan

>  <USAN Year>  (327) 
nan

>  <USAN Stem Definition>  (327) 
nan

>  <USAN Stem Substem>  (327) 
nan

>  <First Approval>  (327) 
nan

>  <ATC Codes>  (327) 
nan

>  <Level 4 ATC Codes>  (327) 
nan

>  <Level 3 ATC Codes>  (327) 
nan

>  <Level 2 ATC Codes>  (327) 
nan

>  <Level 1 ATC Codes>  (327) 
nan

>  <Indication Class>  (327) 
nan

>  <Patent>  (327) 
nan

>  <Drug Type>  (327) 
1:Synthetic Small Molecule

>  <Passes Rule of Five>  (327) 
False

>  <First In Class>  (327) 
False

>  <Chirality>  (327) 
Achiral Molecule

>  <Prodrug>  (327) 
False

>  <Oral>  (327) 
False

>  <Parenteral>  (327) 
False

>  <Topical>  (327) 
False

>  <Black Box>  (327) 
False

>  <Availability Type>  (327) 
Unknown

>  <Withdrawn Year>  (327) 
nan

>  <Withdrawn Reason>  (327) 
nan

>  <Withdrawn Country>  (327) 
nan

>  <Withdrawn Class>  (327) 
nan

>  <SMILES>  (327) 
C#CCOc1ccc2c(c1)c(-c1ccc(C(C)C)cc1)nc(=O)n2Cc1ccc2nc(Br)cnc2c1

>  <InChi Key>  (327) 
ALANRBCCCQEPFZ-UHFFFAOYSA-N

$$$$
CHEMBL4297366
     RDKit          2D

 31 32  0  0  0  0  0  0  0  0999 V2000
  -12.7500    1.2990    0.0000 C   0  0  0  0  0  0  0  0  0  0  0  0
  -12.0000   -0.0000    0.0000 N   0  0  0  0  0  0  0  0  0  0  0  0
  -12.7500   -1.2990    0.0000 C   0  0  0  0  0  0  0  0  0  0  0  0
  -10.5000   -0.0000    0.0000 C   0  0  0  0  0  0  0  0  0  0  0  0
   -9.7500   -1.2990    0.0000 C   0  0  0  0  0  0  0  0  0  0  0  0
   -8.2500   -1.2990    0.0000 C   0  0  0  0  0  0  0  0  0  0  0  0
   -7.5000   -2.5981    0.0000 N   0  0  0  0  0  0  0  0  0  0  0  0
   -6.0000   -2.5981    0.0000 C   0  0  0  0  0  0  0  0  0  0  0  0
   -5.2500   -1.2990    0.0000 O   0  0  0  0  0  0  0  0  0  0  0  0
   -5.2500   -3.8971    0.0000 C   0  0  0  0  0  0  0  0  0  0  0  0
   -6.0000   -5.1962    0.0000 C   0  0  0  0  0  0  0  0  0  0  0  0
   -7.5000   -5.1962    0.0000 C   0  0  0  0  0  0  0  0  0  0  0  0
   -8.2500   -6.4952    0.0000 C   0  0  0  0  0  0  0  0  0  0  0  0
   -9.7500   -6.4952    0.0000 C   0  0  0  0  0  0  0  0  0  0  0  0
  -10.5000   -7.7942    0.0000 C   0  0  0  0  0  0  0  0  0  0  0  0
  -12.0000   -7.7942    0.0000 C   0  0  0  0  0  0  0  0  0  0  0  0
  -12.7500   -6.4952    0.0000 O   0  0  0  0  0  0  0  0  0  0  0  0
  -12.7500   -9.0933    0.0000 N   0  0  0  0  0  0  0  0  0  0  0  0
  -14.2500   -9.0933    0.0000 O   0  0  0  0  0  0  0  0  0  0  0  0
   -3.7500   -3.8971    0.0000 C   0  0  0  0  0  0  0  0  0  0  0  0
   -3.0000   -2.5981    0.0000 O   0  0  0  0  0  0  0  0  0  0  0  0
   -1.5000   -2.5981    0.0000 C   0  0  0  0  0  0  0  0  0  0  0  0
   -0.7500   -3.8971    0.0000 C   0  0  0  0  0  0  0  0  0  0  0  0
    0.7500   -3.8971    0.0000 C   0  0  0  0  0  0  0  0  0  0  0  0
    1.5000   -2.5981    0.0000 C   0  0  0  0  0  0  0  0  0  0  0  0
    0.7500   -1.2990    0.0000 C   0  0  0  0  0  0  0  0  0  0  0  0
    1.5000    0.0000    0.0000 C   0  0  0  0  0  0  0  0  0  0  0  0
    0.7500    1.2990    0.0000 C   0  0  0  0  0  0  0  0  0  0  0  0
   -0.7500    1.2990    0.0000 C   0  0  0  0  0  0  0  0  0  0  0  0
   -1.5000    0.0000    0.0000 C   0  0  0  0  0  0  0  0  0  0  0  0
   -0.7500   -1.2990    0.0000 C   0  0  0  0  0  0  0  0  0  0  0  0
  1  2  1  0
  2  3  1  0
  2  4  1  0
  4  5  1  0
  5  6  1  0
  6  7  1  0
  7  8  1  0
  8  9  2  0
  8 10  1  0
 10 11  2  3
 11 12  1  0
 12 13  1  0
 13 14  1  0
 14 15  1  0
 15 16  1  0
 16 17  1  0
 16 18  2  3
 18 19  1  0
 10 20  1  0
 20 21  1  0
 21 22  1  0
 22 23  2  0
 23 24  1  0
 24 25  2  0
 25 26  1  0
 26 27  2  0
 27 28  1  0
 28 29  2  0
 29 30  1  0
 30 31  2  0
 31 22  1  0
 31 26  1  0
M  END
>  <Synonyms>  (328) 
CG 2 (HDAC INHIBITOR)|CG-2|CG-200745|CG200745|HDCG-0745|J3.106.463E

>  <Research Codes>  (328) 
CG 2 (HDAC INHIBITOR)|CG-2|CG200745|HDCG-0745|J3.106.463E

>  <Phase>  (328) 
1

>  <Applicants>  (328) 
nan

>  <USAN Stem>  (328) 
nan

>  <USAN Year>  (328) 
nan

>  <USAN Stem Definition>  (328) 
nan

>  <USAN Stem Substem>  (328) 
nan

>  <First Approval>  (328) 
nan

>  <ATC Codes>  (328) 
nan

>  <Level 4 ATC Codes>  (328) 
nan

>  <Level 3 ATC Codes>  (328) 
nan

>  <Level 2 ATC Codes>  (328) 
nan

>  <Level 1 ATC Codes>  (328) 
nan

>  <Indication Class>  (328) 
nan

>  <Patent>  (328) 
nan

>  <Drug Type>  (328) 
1:Synthetic Small Molecule

>  <Passes Rule of Five>  (328) 
True

>  <First In Class>  (328) 
False

>  <Chirality>  (328) 
Achiral Molecule

>  <Prodrug>  (328) 
False

>  <Oral>  (328) 
False

>  <Parenteral>  (328) 
False

>  <Topical>  (328) 
False

>  <Black Box>  (328) 
False

>  <Availability Type>  (328) 
Unknown

>  <Withdrawn Year>  (328) 
nan

>  <Withdrawn Reason>  (328) 
nan

>  <Withdrawn Country>  (328) 
nan

>  <Withdrawn Class>  (328) 
nan

>  <SMILES>  (328) 
CN(C)CCCNC(=O)/C(=C/CCCCC(=O)NO)COc1cccc2ccccc12

>  <InChi Key>  (328) 
AUGCSOFQTDKPSO-UHFFFAOYSA-N

$$$$
CHEMBL4297359
     RDKit          2D

 31 33  0  0  0  0  0  0  0  0999 V2000
   -1.3463   -9.5982    0.0000 C   0  0  0  0  0  0  0  0  0  0  0  0
   -1.0344   -8.1310    0.0000 O   0  0  0  0  0  0  0  0  0  0  0  0
   -2.1491   -7.1273    0.0000 C   0  0  0  0  0  0  0  0  0  0  0  0
   -3.5757   -7.5908    0.0000 C   0  0  0  0  0  0  0  0  0  0  0  0
   -3.8876   -9.0580    0.0000 C   0  0  0  0  0  0  0  0  0  0  0  0
   -4.6904   -6.5871    0.0000 C   0  0  0  0  0  0  0  0  0  0  0  0
   -4.3786   -5.1199    0.0000 N   0  0  0  0  0  0  0  0  0  0  0  0
   -2.9520   -4.6564    0.0000 C   0  0  0  0  0  0  0  0  0  0  0  0
   -2.6401   -3.1891    0.0000 C   0  0  0  0  0  0  0  0  0  0  0  0
   -1.2135   -2.7256    0.0000 N   0  0  0  0  0  0  0  0  0  0  0  0
   -0.0000   -3.6073    0.0000 C   0  0  0  0  0  0  0  0  0  0  0  0
    1.2135   -2.7256    0.0000 C   0  0  0  0  0  0  0  0  0  0  0  0
    2.6401   -3.1891    0.0000 C   0  0  0  0  0  0  0  0  0  0  0  0
    4.0667   -3.6527    0.0000 C   0  0  0  0  0  0  0  0  0  0  0  0
    5.4933   -4.1162    0.0000 C   0  0  0  0  0  0  0  0  0  0  0  0
    5.8051   -5.5834    0.0000 C   0  0  0  0  0  0  0  0  0  0  0  0
    7.2317   -6.0469    0.0000 O   0  0  0  0  0  0  0  0  0  0  0  0
    7.5436   -7.5142    0.0000 P   0  0  0  0  0  7  0  0  0  0  0  0
    9.0108   -7.2023    0.0000 O   0  0  0  0  0  0  0  0  0  0  0  0
    6.0764   -7.8260    0.0000 O   0  0  0  0  0  0  0  0  0  0  0  0
    7.8555   -8.9814    0.0000 O   0  0  0  0  0  0  0  0  0  0  0  0
    0.7500   -1.2990    0.0000 C   0  0  0  0  0  0  0  0  0  0  0  0
    1.5000    0.0000    0.0000 C   0  0  0  0  0  0  0  0  0  0  0  0
    3.0000    0.0000    0.0000 Cl  0  0  0  0  0  0  0  0  0  0  0  0
    0.7500    1.2990    0.0000 N   0  0  0  0  0  0  0  0  0  0  0  0
   -0.7500    1.2990    0.0000 C   0  0  0  0  0  0  0  0  0  0  0  0
   -1.5000    2.5981    0.0000 N   0  0  0  0  0  0  0  0  0  0  0  0
   -1.5000    0.0000    0.0000 N   0  0  0  0  0  0  0  0  0  0  0  0
   -0.7500   -1.2990    0.0000 C   0  0  0  0  0  0  0  0  0  0  0  0
   -1.8373   -5.6601    0.0000 C   0  0  0  0  0  0  0  0  0  0  0  0
   -0.4107   -5.1965    0.0000 C   0  0  0  0  0  0  0  0  0  0  0  0
  1  2  1  0
  2  3  1  0
  3  4  2  0
  4  5  1  0
  4  6  1  0
  6  7  2  0
  7  8  1  0
  8  9  1  0
  9 10  1  0
 10 11  1  0
 11 12  2  0
 12 13  1  0
 13 14  3  0
 14 15  1  0
 15 16  1  0
 16 17  1  0
 17 18  1  0
 18 19  2  0
 18 20  2  0
 18 21  1  0
 12 22  1  0
 22 23  2  0
 23 24  1  0
 23 25  1  0
 25 26  1  0
 26 27  2  0
 26 28  1  0
 28 29  2  0
  8 30  2  0
 30 31  1  0
 30  3  1  0
 29 10  1  0
 29 22  1  0
M  END
>  <Synonyms>  (329) 
BIIB-028|BIIB028

>  <Research Codes>  (329) 
BIIB028

>  <Phase>  (329) 
1

>  <Applicants>  (329) 
nan

>  <USAN Stem>  (329) 
nan

>  <USAN Year>  (329) 
nan

>  <USAN Stem Definition>  (329) 
nan

>  <USAN Stem Substem>  (329) 
nan

>  <First Approval>  (329) 
nan

>  <ATC Codes>  (329) 
nan

>  <Level 4 ATC Codes>  (329) 
nan

>  <Level 3 ATC Codes>  (329) 
nan

>  <Level 2 ATC Codes>  (329) 
nan

>  <Level 1 ATC Codes>  (329) 
nan

>  <Indication Class>  (329) 
nan

>  <Patent>  (329) 
nan

>  <Drug Type>  (329) 
1:Synthetic Small Molecule

>  <Passes Rule of Five>  (329) 
True

>  <First In Class>  (329) 
False

>  <Chirality>  (329) 
Achiral Molecule

>  <Prodrug>  (329) 
False

>  <Oral>  (329) 
False

>  <Parenteral>  (329) 
False

>  <Topical>  (329) 
False

>  <Black Box>  (329) 
False

>  <Availability Type>  (329) 
Unknown

>  <Withdrawn Year>  (329) 
nan

>  <Withdrawn Reason>  (329) 
nan

>  <Withdrawn Country>  (329) 
nan

>  <Withdrawn Class>  (329) 
nan

>  <SMILES>  (329) 
COc1c(C)cnc(Cn2cc(C#CCCOP(=O)(O)O)c3c(Cl)nc(N)nc32)c1C

>  <InChi Key>  (329) 
GVLTXABWUQZMIA-UHFFFAOYSA-N

$$$$
CHEMBL4101487
     RDKit          2D

 40 45  0  0  0  0  0  0  0  0999 V2000
   -3.0000  -10.3923    0.0000 O   0  0  0  0  0  0  0  0  0  0  0  0
   -3.7500   -9.0933    0.0000 C   0  0  0  0  0  0  0  0  0  0  0  0
   -5.2500   -9.0933    0.0000 O   0  0  0  0  0  0  0  0  0  0  0  0
   -3.0000   -7.7942    0.0000 C   0  0  0  0  0  0  0  0  0  0  0  0
   -3.7500   -6.4952    0.0000 C   0  0  0  0  0  0  0  0  0  0  0  0
   -3.0000   -5.1962    0.0000 C   0  0  0  0  0  0  0  0  0  0  0  0
   -1.5000   -5.1962    0.0000 C   0  0  0  0  0  0  0  0  0  0  0  0
   -0.7500   -3.8971    0.0000 C   0  0  0  0  0  0  0  0  0  0  0  0
    0.7500   -3.8971    0.0000 C   0  0  0  0  0  0  0  0  0  0  0  0
    1.5000   -2.5981    0.0000 C   0  0  0  0  0  0  0  0  0  0  0  0
    3.0000   -2.5981    0.0000 N   0  0  0  0  0  0  0  0  0  0  0  0
    3.7500   -3.8971    0.0000 C   0  0  0  0  0  0  0  0  0  0  0  0
    3.0000   -5.1962    0.0000 O   0  0  0  0  0  0  0  0  0  0  0  0
    5.2500   -3.8971    0.0000 C   0  0  0  0  0  0  0  0  0  0  0  0
    5.5105   -2.4199    0.0000 C   0  0  0  0  0  0  0  0  0  0  0  0
    4.3614   -1.4557    0.0000 C   0  0  0  0  0  0  0  0  0  0  0  0
    4.6219    0.0215    0.0000 C   0  0  0  0  0  0  0  0  0  0  0  0
    6.0314    0.5345    0.0000 C   0  0  0  0  0  0  0  0  0  0  0  0
    7.1805   -0.4297    0.0000 C   0  0  0  0  0  0  0  0  0  0  0  0
    6.9200   -1.9069    0.0000 C   0  0  0  0  0  0  0  0  0  0  0  0
    8.4526    0.3652    0.0000 O   0  0  0  0  0  0  0  0  0  0  0  0
    8.0897    1.8207    0.0000 C   0  0  0  0  0  0  0  0  0  0  0  0
    9.5751    2.0294    0.0000 F   0  0  0  0  0  0  0  0  0  0  0  0
    8.0373    3.3197    0.0000 F   0  0  0  0  0  0  0  0  0  0  0  0
    6.5933    1.9253    0.0000 O   0  0  0  0  0  0  0  0  0  0  0  0
    6.6595   -4.4101    0.0000 C   0  0  0  0  0  0  0  0  0  0  0  0
    5.5105   -5.3743    0.0000 C   0  0  0  0  0  0  0  0  0  0  0  0
    0.7500   -1.2990    0.0000 C   0  0  0  0  0  0  0  0  0  0  0  0
    1.5000    0.0000    0.0000 C   0  0  0  0  0  0  0  0  0  0  0  0
    0.7500    1.2990    0.0000 C   0  0  0  0  0  0  0  0  0  0  0  0
   -0.7500    1.2990    0.0000 C   0  0  0  0  0  0  0  0  0  0  0  0
   -1.5000    2.5981    0.0000 O   0  0  0  0  0  0  0  0  0  0  0  0
   -0.7500    3.8971    0.0000 C   0  0  0  0  0  0  0  0  0  0  0  0
   -1.5000    5.1962    0.0000 F   0  0  0  0  0  0  0  0  0  0  0  0
    0.7500    3.8971    0.0000 F   0  0  0  0  0  0  0  0  0  0  0  0
   -1.5000    0.0000    0.0000 C   0  0  0  0  0  0  0  0  0  0  0  0
   -0.7500   -1.2990    0.0000 C   0  0  0  0  0  0  0  0  0  0  0  0
   -1.5000   -2.5981    0.0000 O   0  0  0  0  0  0  0  0  0  0  0  0
   -0.7500   -6.4952    0.0000 C   0  0  0  0  0  0  0  0  0  0  0  0
   -1.5000   -7.7942    0.0000 C   0  0  0  0  0  0  0  0  0  0  0  0
  1  2  2  0
  2  3  1  0
  2  4  1  0
  4  5  2  0
  5  6  1  0
  6  7  2  0
  7  8  1  0
  8  9  1  0
  9 10  1  0
 10 11  1  6
 11 12  1  0
 12 13  2  0
 12 14  1  0
 14 15  1  0
 15 16  2  0
 16 17  1  0
 17 18  2  0
 18 19  1  0
 19 20  2  0
 19 21  1  0
 21 22  1  0
 22 23  1  0
 22 24  1  0
 22 25  1  0
 14 26  1  0
 26 27  1  0
 10 28  1  0
 28 29  2  0
 29 30  1  0
 30 31  2  0
 31 32  1  0
 32 33  1  0
 33 34  1  0
 33 35  1  0
 31 36  1  0
 36 37  2  0
 37 38  1  0
  7 39  1  0
 39 40  2  0
 40  4  1  0
 38  8  1  0
 27 14  1  0
 37 28  1  0
 20 15  1  0
 25 18  1  0
M  END
>  <Synonyms>  (330) 
ABBV-2222|GALICAFTOR|GLPG-2222|GLPG2222

>  <Research Codes>  (330) 
ABBV-2222|GLPG-2222|GLPG2222

>  <Phase>  (330) 
1

>  <Applicants>  (330) 
nan

>  <USAN Stem>  (330) 
'-caftor'

>  <USAN Year>  (330) 
nan

>  <USAN Stem Definition>  (330) 
cystic fibrosis transmembrane regulator (CFTR) protein modulators

>  <USAN Stem Substem>  (330) 
'-caftor(-caftor)'

>  <First Approval>  (330) 
nan

>  <ATC Codes>  (330) 
nan

>  <Level 4 ATC Codes>  (330) 
nan

>  <Level 3 ATC Codes>  (330) 
nan

>  <Level 2 ATC Codes>  (330) 
nan

>  <Level 1 ATC Codes>  (330) 
nan

>  <Indication Class>  (330) 
nan

>  <Patent>  (330) 
nan

>  <Drug Type>  (330) 
1:Synthetic Small Molecule

>  <Passes Rule of Five>  (330) 
False

>  <First In Class>  (330) 
False

>  <Chirality>  (330) 
Single Stereoisomer

>  <Prodrug>  (330) 
False

>  <Oral>  (330) 
False

>  <Parenteral>  (330) 
False

>  <Topical>  (330) 
False

>  <Black Box>  (330) 
False

>  <Availability Type>  (330) 
Unknown

>  <Withdrawn Year>  (330) 
nan

>  <Withdrawn Reason>  (330) 
nan

>  <Withdrawn Country>  (330) 
nan

>  <Withdrawn Class>  (330) 
nan

>  <SMILES>  (330) 
O=C(O)c1ccc([C@H]2C[C@@H](NC(=O)C3(c4ccc5c(c4)OC(F)(F)O5)CC3)c3ccc(OC(F)F)cc3O2)cc1

>  <InChi Key>  (330) 
QVDYQHXNAQHIKH-YMBRHYMPSA-N

$$$$
CHEMBL4227736
     RDKit          2D

 28 30  0  0  0  0  0  0  0  0999 V2000
    3.0000    0.0000    0.0000 C   0  0  0  0  0  0  0  0  0  0  0  0
    1.5000    0.0000    0.0000 C   0  0  0  0  0  0  0  0  0  0  0  0
    0.7500   -1.2990    0.0000 C   0  0  0  0  0  0  0  0  0  0  0  0
   -0.7500   -1.2990    0.0000 C   0  0  0  0  0  0  0  0  0  0  0  0
   -1.5000    0.0000    0.0000 C   0  0  0  0  0  0  0  0  0  0  0  0
   -3.0000    0.0000    0.0000 C   0  0  0  0  0  0  0  0  0  0  0  0
   -3.7500    1.2990    0.0000 O   0  0  0  0  0  0  0  0  0  0  0  0
   -3.7500   -1.2990    0.0000 O   0  0  0  0  0  0  0  0  0  0  0  0
   -5.2500   -1.2990    0.0000 C   0  0  0  0  0  0  0  0  0  0  0  0
   -6.0000    0.0000    0.0000 C   0  0  0  0  0  0  0  0  0  0  0  0
   -7.5000    0.0000    0.0000 C   0  0  0  0  0  0  0  0  0  0  0  0
   -8.2500   -1.2990    0.0000 C   0  0  0  0  0  0  0  0  0  0  0  0
   -9.7500   -1.2990    0.0000 C   0  0  0  0  0  0  0  0  0  0  0  0
  -10.5000   -0.0000    0.0000 C   0  0  0  0  0  0  0  0  0  0  0  0
  -12.0000   -0.0000    0.0000 N   0  0  0  0  0  0  0  0  0  0  0  0
  -12.7500    1.2990    0.0000 C   0  0  0  0  0  0  0  0  0  0  0  0
  -12.7500   -1.2990    0.0000 C   0  0  0  0  0  0  0  0  0  0  0  0
  -10.5000   -2.5981    0.0000 C   0  0  0  0  0  0  0  0  0  0  0  0
   -9.0905   -3.1111    0.0000 O   0  0  0  0  0  0  0  0  0  0  0  0
  -11.6491   -1.6339    0.0000 C   0  0  0  0  0  0  0  0  0  0  0  0
  -13.0586   -2.1469    0.0000 C   0  0  0  0  0  0  0  0  0  0  0  0
  -13.3191   -3.6241    0.0000 C   0  0  0  0  0  0  0  0  0  0  0  0
  -12.1700   -4.5883    0.0000 C   0  0  0  0  0  0  0  0  0  0  0  0
  -10.7605   -4.0753    0.0000 C   0  0  0  0  0  0  0  0  0  0  0  0
   -7.5000   -2.5981    0.0000 C   0  0  0  0  0  0  0  0  0  0  0  0
   -6.0000   -2.5981    0.0000 C   0  0  0  0  0  0  0  0  0  0  0  0
   -0.7500    1.2990    0.0000 C   0  0  0  0  0  0  0  0  0  0  0  0
    0.7500    1.2990    0.0000 C   0  0  0  0  0  0  0  0  0  0  0  0
  1  2  1  0
  2  3  2  0
  3  4  1  0
  4  5  2  0
  5  6  1  0
  6  7  2  0
  6  8  1  0
  8  9  1  0
  9 10  2  0
 10 11  1  0
 11 12  2  0
 12 13  1  0
 13 14  1  0
 14 15  1  0
 15 16  1  0
 15 17  1  0
 13 18  1  0
 18 19  1  0
 18 20  1  0
 20 21  1  0
 21 22  1  0
 22 23  1  0
 23 24  1  0
 12 25  1  0
 25 26  2  0
  5 27  1  0
 27 28  2  0
 28  2  1  0
 26  9  1  0
 24 18  1  0
M  END
>  <Synonyms>  (331) 
ANSOFAXINE|LPM-570065|LPM570065|LY-03005|LY03005|ODVP2

>  <Research Codes>  (331) 
LPM-570065|LPM570065|LY-03005|LY03005|ODVP2

>  <Phase>  (331) 
1

>  <Applicants>  (331) 
nan

>  <USAN Stem>  (331) 
'-faxine'

>  <USAN Year>  (331) 
nan

>  <USAN Stem Definition>  (331) 
antianxiety, antidepressant inhibitor of norepinephrine and dopamine re-uptake

>  <USAN Stem Substem>  (331) 
'-faxine(-faxine)'

>  <First Approval>  (331) 
nan

>  <ATC Codes>  (331) 
nan

>  <Level 4 ATC Codes>  (331) 
nan

>  <Level 3 ATC Codes>  (331) 
nan

>  <Level 2 ATC Codes>  (331) 
nan

>  <Level 1 ATC Codes>  (331) 
nan

>  <Indication Class>  (331) 
nan

>  <Patent>  (331) 
nan

>  <Drug Type>  (331) 
1:Synthetic Small Molecule

>  <Passes Rule of Five>  (331) 
True

>  <First In Class>  (331) 
False

>  <Chirality>  (331) 
Racemic Mixture

>  <Prodrug>  (331) 
False

>  <Oral>  (331) 
False

>  <Parenteral>  (331) 
False

>  <Topical>  (331) 
False

>  <Black Box>  (331) 
False

>  <Availability Type>  (331) 
Unknown

>  <Withdrawn Year>  (331) 
nan

>  <Withdrawn Reason>  (331) 
nan

>  <Withdrawn Country>  (331) 
nan

>  <Withdrawn Class>  (331) 
nan

>  <SMILES>  (331) 
Cc1ccc(C(=O)Oc2ccc(C(CN(C)C)C3(O)CCCCC3)cc2)cc1

>  <InChi Key>  (331) 
QKYBZJLEMOZFFU-UHFFFAOYSA-N

$$$$
CHEMBL2031465
     RDKit          2D

 31 35  0  0  0  0  0  0  0  0999 V2000
    0.7500   -6.4952    0.0000 C   0  0  0  0  0  0  0  0  0  0  0  0
   -0.7500   -6.4952    0.0000 C   0  0  0  0  0  0  0  0  0  0  0  0
   -1.5000   -7.7942    0.0000 C   0  0  0  0  0  0  0  0  0  0  0  0
   -3.0000   -7.7942    0.0000 C   0  0  0  0  0  0  0  0  0  0  0  0
   -3.7500   -6.4952    0.0000 C   0  0  0  0  0  0  0  0  0  0  0  0
   -5.2500   -6.4952    0.0000 C   0  0  0  0  0  0  0  0  0  0  0  0
   -6.0000   -7.7942    0.0000 O   0  0  0  0  0  0  0  0  0  0  0  0
   -6.0000   -5.1962    0.0000 N   0  0  0  0  0  0  0  0  0  0  0  0
   -7.5000   -5.1962    0.0000 C   0  0  0  0  0  0  0  0  0  0  0  0
   -8.7990   -5.9462    0.0000 C   0  0  0  0  0  0  0  0  0  0  0  0
   -8.7990   -4.4462    0.0000 C   0  0  0  0  0  0  0  0  0  0  0  0
   -3.0000   -5.1962    0.0000 C   0  0  0  0  0  0  0  0  0  0  0  0
   -1.5000   -5.1962    0.0000 C   0  0  0  0  0  0  0  0  0  0  0  0
   -0.7500   -3.8971    0.0000 N   0  0  0  0  0  0  0  0  0  0  0  0
    0.7500   -3.8971    0.0000 C   0  0  0  0  0  0  0  0  0  0  0  0
    1.5000   -2.5981    0.0000 N   0  0  0  0  0  0  0  0  0  0  0  0
    0.7500   -1.2990    0.0000 C   0  0  0  0  0  0  0  0  0  0  0  0
    1.5000    0.0000    0.0000 C   0  0  0  0  0  0  0  0  0  0  0  0
    0.7500    1.2990    0.0000 C   0  0  0  0  0  0  0  0  0  0  0  0
   -0.7500    1.2990    0.0000 C   0  0  0  0  0  0  0  0  0  0  0  0
   -1.5000    2.5981    0.0000 N   0  0  0  0  0  0  0  0  0  0  0  0
   -0.7500    3.8971    0.0000 C   0  0  0  0  0  0  0  0  0  0  0  0
   -1.5000    5.1962    0.0000 C   0  0  0  0  0  0  0  0  0  0  0  0
   -3.0000    5.1962    0.0000 N   0  0  0  0  0  0  0  0  0  0  0  0
   -3.7500    6.4952    0.0000 C   0  0  0  0  0  0  0  0  0  0  0  0
   -3.7500    3.8971    0.0000 C   0  0  0  0  0  0  0  0  0  0  0  0
   -3.0000    2.5981    0.0000 C   0  0  0  0  0  0  0  0  0  0  0  0
   -1.5000    0.0000    0.0000 C   0  0  0  0  0  0  0  0  0  0  0  0
   -0.7500   -1.2990    0.0000 C   0  0  0  0  0  0  0  0  0  0  0  0
   -1.5000   -2.5981    0.0000 C   0  0  0  0  0  0  0  0  0  0  0  0
   -3.0000   -2.5981    0.0000 O   0  0  0  0  0  0  0  0  0  0  0  0
  1  2  1  0
  2  3  2  0
  3  4  1  0
  4  5  2  0
  5  6  1  0
  6  7  2  0
  6  8  1  0
  8  9  1  0
  9 10  1  0
 10 11  1  0
  5 12  1  0
 12 13  2  0
 13 14  1  0
 14 15  1  0
 15 16  2  0
 16 17  1  0
 17 18  2  0
 18 19  1  0
 19 20  2  0
 20 21  1  0
 21 22  1  0
 22 23  1  0
 23 24  1  0
 24 25  1  0
 24 26  1  0
 26 27  1  0
 20 28  1  0
 28 29  2  0
 29 30  1  0
 30 31  2  0
 13  2  1  0
 30 14  1  0
 11  9  1  0
 29 17  1  0
 27 21  1  0
M  END
>  <Synonyms>  (332) 
AZ-12012199|AZD-6703

>  <Research Codes>  (332) 
AZ-12012199|AZD-6703

>  <Phase>  (332) 
1

>  <Applicants>  (332) 
nan

>  <USAN Stem>  (332) 
nan

>  <USAN Year>  (332) 
nan

>  <USAN Stem Definition>  (332) 
nan

>  <USAN Stem Substem>  (332) 
nan

>  <First Approval>  (332) 
nan

>  <ATC Codes>  (332) 
nan

>  <Level 4 ATC Codes>  (332) 
nan

>  <Level 3 ATC Codes>  (332) 
nan

>  <Level 2 ATC Codes>  (332) 
nan

>  <Level 1 ATC Codes>  (332) 
nan

>  <Indication Class>  (332) 
nan

>  <Patent>  (332) 
nan

>  <Drug Type>  (332) 
1:Synthetic Small Molecule

>  <Passes Rule of Five>  (332) 
True

>  <First In Class>  (332) 
False

>  <Chirality>  (332) 
Achiral Molecule

>  <Prodrug>  (332) 
False

>  <Oral>  (332) 
False

>  <Parenteral>  (332) 
False

>  <Topical>  (332) 
False

>  <Black Box>  (332) 
False

>  <Availability Type>  (332) 
Unknown

>  <Withdrawn Year>  (332) 
nan

>  <Withdrawn Reason>  (332) 
nan

>  <Withdrawn Country>  (332) 
nan

>  <Withdrawn Class>  (332) 
nan

>  <SMILES>  (332) 
Cc1ccc(C(=O)NC2CC2)cc1-n1cnc2ccc(N3CCN(C)CC3)cc2c1=O

>  <InChi Key>  (332) 
ZMAZXHICVRYLQN-UHFFFAOYSA-N

$$$$
CHEMBL427526
     RDKit          2D

 15 15  0  0  0  0  0  0  0  0999 V2000
    5.2500   -1.2990    0.0000 C   0  0  0  0  0  0  0  0  0  0  0  0
    3.7500   -1.2990    0.0000 C   0  0  0  0  0  0  0  0  0  0  0  0
    3.0000   -2.5981    0.0000 C   0  0  0  0  0  0  0  0  0  0  0  0
    3.0000    0.0000    0.0000 C   0  0  0  0  0  0  0  0  0  0  0  0
    1.5000    0.0000    0.0000 C   0  0  0  0  0  0  0  0  0  0  0  0
    0.7500   -1.2990    0.0000 C   0  0  0  0  0  0  0  0  0  0  0  0
   -0.7500   -1.2990    0.0000 C   0  0  0  0  0  0  0  0  0  0  0  0
   -1.5000    0.0000    0.0000 C   0  0  0  0  0  0  0  0  0  0  0  0
   -3.0000    0.0000    0.0000 C   0  0  0  0  0  0  0  0  0  0  0  0
   -3.7500    1.2990    0.0000 C   0  0  0  0  0  0  0  0  0  0  0  0
   -3.7500   -1.2990    0.0000 C   0  0  0  0  0  0  0  0  0  0  0  0
   -5.2500   -1.2990    0.0000 O   0  0  0  0  0  0  0  0  0  0  0  0
   -3.0000   -2.5981    0.0000 O   0  0  0  0  0  0  0  0  0  0  0  0
   -0.7500    1.2990    0.0000 C   0  0  0  0  0  0  0  0  0  0  0  0
    0.7500    1.2990    0.0000 C   0  0  0  0  0  0  0  0  0  0  0  0
  1  2  1  0
  2  3  1  0
  2  4  1  0
  4  5  1  0
  5  6  2  0
  6  7  1  0
  7  8  2  0
  8  9  1  0
  9 10  1  0
  9 11  1  0
 11 12  2  0
 11 13  1  0
  8 14  1  0
 14 15  2  0
 15  5  1  0
M  END
>  <Synonyms>  (333) 
(R)-IBUPROPHEN|Ibuprofen

>  <Research Codes>  (333) 
nan

>  <Phase>  (333) 
1

>  <Applicants>  (333) 
nan

>  <USAN Stem>  (333) 
nan

>  <USAN Year>  (333) 
nan

>  <USAN Stem Definition>  (333) 
nan

>  <USAN Stem Substem>  (333) 
nan

>  <First Approval>  (333) 
nan

>  <ATC Codes>  (333) 
nan

>  <Level 4 ATC Codes>  (333) 
nan

>  <Level 3 ATC Codes>  (333) 
nan

>  <Level 2 ATC Codes>  (333) 
nan

>  <Level 1 ATC Codes>  (333) 
nan

>  <Indication Class>  (333) 
nan

>  <Patent>  (333) 
nan

>  <Drug Type>  (333) 
1:Synthetic Small Molecule

>  <Passes Rule of Five>  (333) 
True

>  <First In Class>  (333) 
False

>  <Chirality>  (333) 
Unknown

>  <Prodrug>  (333) 
False

>  <Oral>  (333) 
False

>  <Parenteral>  (333) 
False

>  <Topical>  (333) 
False

>  <Black Box>  (333) 
False

>  <Availability Type>  (333) 
Unknown

>  <Withdrawn Year>  (333) 
nan

>  <Withdrawn Reason>  (333) 
nan

>  <Withdrawn Country>  (333) 
nan

>  <Withdrawn Class>  (333) 
nan

>  <SMILES>  (333) 
CC(C)Cc1ccc([C@@H](C)C(=O)O)cc1

>  <InChi Key>  (333) 
HEFNNWSXXWATRW-UHFFFAOYSA-N

$$$$
CHEMBL1818341
     RDKit          2D

 26 28  0  0  0  0  0  0  0  0999 V2000
    7.5000   -2.5981    0.0000 C   0  0  0  0  0  0  0  0  0  0  0  0
    6.0000   -2.5981    0.0000 C   0  0  0  0  0  0  0  0  0  0  0  0
    5.2500   -3.8971    0.0000 C   0  0  0  0  0  0  0  0  0  0  0  0
    5.2500   -1.2990    0.0000 C   0  0  0  0  0  0  0  0  0  0  0  0
    3.7500   -1.2990    0.0000 N   0  0  0  0  0  0  0  0  0  0  0  0
    3.0000    0.0000    0.0000 C   0  0  0  0  0  0  0  0  0  0  0  0
    1.5000    0.0000    0.0000 C   0  0  0  0  0  0  0  0  0  0  0  0
    0.7500   -1.2990    0.0000 C   0  0  0  0  0  0  0  0  0  0  0  0
   -0.7500   -1.2990    0.0000 C   0  0  0  0  0  0  0  0  0  0  0  0
   -1.5000    0.0000    0.0000 C   0  0  0  0  0  0  0  0  0  0  0  0
   -3.0000    0.0000    0.0000 C   0  0  0  0  0  0  0  0  0  0  0  0
   -3.7500    1.2990    0.0000 C   0  0  0  0  0  0  0  0  0  0  0  0
   -5.2500    1.2990    0.0000 C   0  0  0  0  0  0  0  0  0  0  0  0
   -6.0000    0.0000    0.0000 C   0  0  0  0  0  0  0  0  0  0  0  0
   -5.2500   -1.2990    0.0000 C   0  0  0  0  0  0  0  0  0  0  0  0
   -3.7500   -1.2990    0.0000 C   0  0  0  0  0  0  0  0  0  0  0  0
   -3.0000   -2.5981    0.0000 S   0  0  0  0  0  0  0  0  0  0  0  0
   -4.2990   -3.3481    0.0000 O   0  0  0  0  0  0  0  0  0  0  0  0
   -1.7010   -1.8481    0.0000 O   0  0  0  0  0  0  0  0  0  0  0  0
   -2.2500   -3.8971    0.0000 N   0  0  0  0  0  0  0  0  0  0  0  0
   -0.7582   -4.0539    0.0000 C   0  0  0  0  0  0  0  0  0  0  0  0
   -0.4463   -5.5211    0.0000 C   0  0  0  0  0  0  0  0  0  0  0  0
   -1.7454   -6.2711    0.0000 C   0  0  0  0  0  0  0  0  0  0  0  0
   -2.8601   -5.2674    0.0000 C   0  0  0  0  0  0  0  0  0  0  0  0
   -0.7500    1.2990    0.0000 C   0  0  0  0  0  0  0  0  0  0  0  0
    0.7500    1.2990    0.0000 C   0  0  0  0  0  0  0  0  0  0  0  0
  1  2  1  0
  2  3  1  0
  2  4  1  0
  4  5  1  0
  5  6  1  0
  6  7  1  0
  7  8  2  0
  8  9  1  0
  9 10  2  0
 10 11  1  0
 11 12  2  0
 12 13  1  0
 13 14  2  0
 14 15  1  0
 15 16  2  0
 16 17  1  0
 17 18  2  0
 17 19  2  0
 17 20  1  0
 20 21  1  0
 21 22  1  0
 22 23  1  0
 23 24  1  0
 10 25  1  0
 25 26  2  0
 26  7  1  0
 16 11  1  0
 24 20  1  0
M  END
>  <Synonyms>  (334) 
PF-04455242

>  <Research Codes>  (334) 
PF-04455242

>  <Phase>  (334) 
1

>  <Applicants>  (334) 
nan

>  <USAN Stem>  (334) 
nan

>  <USAN Year>  (334) 
nan

>  <USAN Stem Definition>  (334) 
nan

>  <USAN Stem Substem>  (334) 
nan

>  <First Approval>  (334) 
nan

>  <ATC Codes>  (334) 
nan

>  <Level 4 ATC Codes>  (334) 
nan

>  <Level 3 ATC Codes>  (334) 
nan

>  <Level 2 ATC Codes>  (334) 
nan

>  <Level 1 ATC Codes>  (334) 
nan

>  <Indication Class>  (334) 
nan

>  <Patent>  (334) 
nan

>  <Drug Type>  (334) 
1:Synthetic Small Molecule

>  <Passes Rule of Five>  (334) 
True

>  <First In Class>  (334) 
False

>  <Chirality>  (334) 
Unknown

>  <Prodrug>  (334) 
False

>  <Oral>  (334) 
False

>  <Parenteral>  (334) 
False

>  <Topical>  (334) 
False

>  <Black Box>  (334) 
False

>  <Availability Type>  (334) 
Unknown

>  <Withdrawn Year>  (334) 
nan

>  <Withdrawn Reason>  (334) 
nan

>  <Withdrawn Country>  (334) 
nan

>  <Withdrawn Class>  (334) 
nan

>  <SMILES>  (334) 
CC(C)CNCc1ccc(-c2ccccc2S(=O)(=O)N2CCCC2)cc1

>  <InChi Key>  (334) 
OWVIKBRKPCTDEP-UHFFFAOYSA-N

$$$$
CHEMBL4073292
     RDKit          2D

 47 52  0  0  0  0  0  0  0  0999 V2000
    3.7500   -6.4952    0.0000 C   0  0  0  0  0  0  0  0  0  0  0  0
    3.0000   -5.1962    0.0000 N   0  0  0  0  0  0  0  0  0  0  0  0
    1.5000   -5.1962    0.0000 C   0  0  0  0  0  0  0  0  0  0  0  0
    0.7500   -3.8971    0.0000 C   0  0  0  0  0  0  0  0  0  0  0  0
    1.5000   -2.5981    0.0000 N   0  0  0  0  0  0  0  0  0  0  0  0
    0.7500   -1.2990    0.0000 C   0  0  0  0  0  0  0  0  0  0  0  0
    1.5000    0.0000    0.0000 C   0  0  0  0  0  0  0  0  0  0  0  0
    0.7500    1.2990    0.0000 C   0  0  0  0  0  0  0  0  0  0  0  0
   -0.7500    1.2990    0.0000 C   0  0  0  0  0  0  0  0  0  0  0  0
   -1.5000    0.0000    0.0000 C   0  0  0  0  0  0  0  0  0  0  0  0
   -0.7500   -1.2990    0.0000 C   0  0  0  0  0  0  0  0  0  0  0  0
   -1.5000   -2.5981    0.0000 C   0  0  0  0  0  0  0  0  0  0  0  0
   -3.0000   -2.5981    0.0000 C   0  0  0  0  0  0  0  0  0  0  0  0
   -3.7500   -1.2990    0.0000 N   0  0  0  0  0  0  0  0  0  0  0  0
   -5.2500   -1.2990    0.0000 C   0  0  0  0  0  0  0  0  0  0  0  0
   -6.0000    0.0000    0.0000 O   0  0  0  0  0  0  0  0  0  0  0  0
   -6.0000   -2.5981    0.0000 C   0  0  0  0  0  0  0  0  0  0  0  0
   -7.5000   -2.5981    0.0000 C   0  0  0  0  0  0  0  0  0  0  0  0
   -8.2500   -3.8971    0.0000 C   0  0  0  0  0  0  0  0  0  0  0  0
   -9.7500   -3.8971    0.0000 C   0  0  0  0  0  0  0  0  0  0  0  0
  -10.5000   -2.5981    0.0000 N   0  0  0  0  0  0  0  0  0  0  0  0
  -11.9918   -2.4413    0.0000 C   0  0  0  0  0  0  0  0  0  0  0  0
  -12.3037   -0.9741    0.0000 N   0  0  0  0  0  0  0  0  0  0  0  0
  -11.0046   -0.2241    0.0000 N   0  0  0  0  0  0  0  0  0  0  0  0
   -9.8899   -1.2278    0.0000 N   0  0  0  0  0  0  0  0  0  0  0  0
  -10.5000   -5.1962    0.0000 C   0  0  0  0  0  0  0  0  0  0  0  0
   -9.7500   -6.4952    0.0000 C   0  0  0  0  0  0  0  0  0  0  0  0
   -8.2500   -6.4952    0.0000 C   0  0  0  0  0  0  0  0  0  0  0  0
   -7.5000   -7.7942    0.0000 Cl  0  0  0  0  0  0  0  0  0  0  0  0
   -7.5000   -5.1962    0.0000 C   0  0  0  0  0  0  0  0  0  0  0  0
   -6.0000   -5.1962    0.0000 F   0  0  0  0  0  0  0  0  0  0  0  0
   -3.0000    0.0000    0.0000 C   0  0  0  0  0  0  0  0  0  0  0  0
   -3.7500    1.2990    0.0000 C   0  0  0  0  0  0  0  0  0  0  0  0
   -3.0000    2.5981    0.0000 O   0  0  0  0  0  0  0  0  0  0  0  0
   -5.2500    1.2990    0.0000 N   0  0  0  0  0  0  0  0  0  0  0  0
   -6.0000    2.5981    0.0000 C   0  0  0  0  0  0  0  0  0  0  0  0
   -5.2500    3.8971    0.0000 C   0  0  0  0  0  0  0  0  0  0  0  0
   -6.0000    5.1962    0.0000 C   0  0  0  0  0  0  0  0  0  0  0  0
   -7.5000    5.1962    0.0000 C   0  0  0  0  0  0  0  0  0  0  0  0
   -8.2500    6.4952    0.0000 C   0  0  0  0  0  0  0  0  0  0  0  0
   -9.7500    6.4952    0.0000 O   0  0  0  0  0  0  0  0  0  0  0  0
   -7.5000    7.7942    0.0000 O   0  0  0  0  0  0  0  0  0  0  0  0
   -8.2500    3.8971    0.0000 C   0  0  0  0  0  0  0  0  0  0  0  0
   -7.5000    2.5981    0.0000 C   0  0  0  0  0  0  0  0  0  0  0  0
    3.0000   -2.5981    0.0000 C   0  0  0  0  0  0  0  0  0  0  0  0
    3.7500   -1.2990    0.0000 O   0  0  0  0  0  0  0  0  0  0  0  0
    3.7500   -3.8971    0.0000 C   0  0  0  0  0  0  0  0  0  0  0  0
  1  2  1  0
  2  3  1  0
  3  4  1  0
  4  5  1  0
  5  6  1  0
  6  7  2  0
  7  8  1  0
  8  9  2  0
  9 10  1  0
 10 11  2  0
 11 12  1  0
 12 13  1  0
 13 14  1  0
 14 15  1  0
 15 16  2  0
 15 17  1  0
 17 18  2  0
 18 19  1  0
 19 20  1  0
 20 21  1  0
 21 22  1  0
 22 23  2  0
 23 24  1  0
 24 25  2  0
 20 26  2  0
 26 27  1  0
 27 28  2  0
 28 29  1  0
 28 30  1  0
 30 31  1  0
 14 32  1  0
 32 33  1  0
 33 34  2  0
 33 35  1  0
 35 36  1  0
 36 37  2  0
 37 38  1  0
 38 39  2  0
 39 40  1  0
 40 41  2  0
 40 42  1  0
 39 43  1  0
 43 44  2  0
  5 45  1  0
 45 46  2  0
 45 47  1  0
 47  2  1  0
 11  6  1  0
 30 19  2  0
 44 36  1  0
 32 10  1  0
 25 21  1  0
M  END
>  <Synonyms>  (335) 
BMS-962212

>  <Research Codes>  (335) 
BMS-962212

>  <Phase>  (335) 
1

>  <Applicants>  (335) 
nan

>  <USAN Stem>  (335) 
nan

>  <USAN Year>  (335) 
nan

>  <USAN Stem Definition>  (335) 
nan

>  <USAN Stem Substem>  (335) 
nan

>  <First Approval>  (335) 
nan

>  <ATC Codes>  (335) 
nan

>  <Level 4 ATC Codes>  (335) 
nan

>  <Level 3 ATC Codes>  (335) 
nan

>  <Level 2 ATC Codes>  (335) 
nan

>  <Level 1 ATC Codes>  (335) 
nan

>  <Indication Class>  (335) 
nan

>  <Patent>  (335) 
nan

>  <Drug Type>  (335) 
1:Synthetic Small Molecule

>  <Passes Rule of Five>  (335) 
False

>  <First In Class>  (335) 
False

>  <Chirality>  (335) 
Single Stereoisomer

>  <Prodrug>  (335) 
False

>  <Oral>  (335) 
False

>  <Parenteral>  (335) 
False

>  <Topical>  (335) 
False

>  <Black Box>  (335) 
False

>  <Availability Type>  (335) 
Unknown

>  <Withdrawn Year>  (335) 
nan

>  <Withdrawn Reason>  (335) 
nan

>  <Withdrawn Country>  (335) 
nan

>  <Withdrawn Class>  (335) 
nan

>  <SMILES>  (335) 
CN1CCN(c2cccc3c2CCN(C(=O)/C=C/c2c(-n4cnnn4)ccc(Cl)c2F)[C@@H]3C(=O)Nc2ccc(C(=O)O)cc2)C(=O)C1

>  <InChi Key>  (335) 
WYFCZWSWFGJODV-FMIVXFBMSA-N

$$$$
CHEMBL258805
     RDKit          2D

 18 20  0  0  0  0  0  0  0  0999 V2000
    3.7500   -1.2990    0.0000 C   0  0  0  0  0  0  0  0  0  0  0  0
    3.0000    0.0000    0.0000 O   0  0  0  0  0  0  0  0  0  0  0  0
    1.5000    0.0000    0.0000 C   0  0  0  0  0  0  0  0  0  0  0  0
    0.7500   -1.2990    0.0000 C   0  0  0  0  0  0  0  0  0  0  0  0
   -0.7500   -1.2990    0.0000 C   0  0  0  0  0  0  0  0  0  0  0  0
   -1.5000    0.0000    0.0000 C   0  0  0  0  0  0  0  0  0  0  0  0
   -0.7500    1.2990    0.0000 C   0  0  0  0  0  0  0  0  0  0  0  0
    0.7500    1.2990    0.0000 C   0  0  0  0  0  0  0  0  0  0  0  0
   -1.7537    2.4138    0.0000 C   0  0  0  0  0  0  0  0  0  0  0  0
   -1.4418    3.8810    0.0000 C   0  0  0  0  0  0  0  0  0  0  0  0
   -2.5565    4.8847    0.0000 C   0  0  0  0  0  0  0  0  0  0  0  0
   -4.0238    4.5728    0.0000 C   0  0  0  0  0  0  0  0  0  0  0  0
   -4.7738    5.8718    0.0000 N   0  0  0  0  0  0  0  0  0  0  0  0
   -3.7701    6.9866    0.0000 C   0  0  0  0  0  0  0  0  0  0  0  0
   -2.3998    6.3765    0.0000 N   0  0  0  0  0  0  0  0  0  0  0  0
   -3.1240    1.8037    0.0000 C   0  0  0  0  0  0  0  0  0  0  0  0
   -4.4231    2.5537    0.0000 O   0  0  0  0  0  0  0  0  0  0  0  0
   -2.9672    0.3119    0.0000 N   0  0  0  0  0  0  0  0  0  0  0  0
  1  2  1  0
  2  3  1  0
  3  4  2  0
  4  5  1  0
  5  6  2  0
  6  7  1  0
  7  8  2  0
  7  9  1  0
  9 10  2  3
 10 11  1  0
 11 12  2  0
 12 13  1  0
 13 14  1  0
 14 15  2  0
  9 16  1  0
 16 17  2  0
 16 18  1  0
  8  3  1  0
 15 11  1  0
 18  6  1  0
M  END
>  <Synonyms>  (336) 
SU-9516

>  <Research Codes>  (336) 
SU-9516

>  <Phase>  (336) 
1

>  <Applicants>  (336) 
nan

>  <USAN Stem>  (336) 
nan

>  <USAN Year>  (336) 
nan

>  <USAN Stem Definition>  (336) 
nan

>  <USAN Stem Substem>  (336) 
nan

>  <First Approval>  (336) 
nan

>  <ATC Codes>  (336) 
nan

>  <Level 4 ATC Codes>  (336) 
nan

>  <Level 3 ATC Codes>  (336) 
nan

>  <Level 2 ATC Codes>  (336) 
nan

>  <Level 1 ATC Codes>  (336) 
nan

>  <Indication Class>  (336) 
nan

>  <Patent>  (336) 
nan

>  <Drug Type>  (336) 
1:Synthetic Small Molecule

>  <Passes Rule of Five>  (336) 
True

>  <First In Class>  (336) 
False

>  <Chirality>  (336) 
Achiral Molecule

>  <Prodrug>  (336) 
False

>  <Oral>  (336) 
False

>  <Parenteral>  (336) 
False

>  <Topical>  (336) 
False

>  <Black Box>  (336) 
False

>  <Availability Type>  (336) 
Unknown

>  <Withdrawn Year>  (336) 
nan

>  <Withdrawn Reason>  (336) 
nan

>  <Withdrawn Country>  (336) 
nan

>  <Withdrawn Class>  (336) 
nan

>  <SMILES>  (336) 
COc1ccc2c(c1)/C(=C/c1cnc[nH]1)C(=O)N2

>  <InChi Key>  (336) 
QNUKRWAIZMBVCU-UHFFFAOYSA-N

$$$$
CHEMBL178654
     RDKit          2D

 41 44  0  0  0  0  0  0  0  0999 V2000
    5.2500   -1.2990    0.0000 C   0  0  0  0  0  0  0  0  0  0  0  0
    3.7500   -1.2990    0.0000 C   0  0  0  0  0  0  0  0  0  0  0  0
    3.0000    0.0000    0.0000 O   0  0  0  0  0  0  0  0  0  0  0  0
    1.5000    0.0000    0.0000 C   0  0  0  0  0  0  0  0  0  0  0  0
    0.7500   -1.2990    0.0000 C   0  0  0  0  0  0  0  0  0  0  0  0
   -0.7500   -1.2990    0.0000 C   0  0  0  0  0  0  0  0  0  0  0  0
   -1.5000   -2.5981    0.0000 N   0  0  0  0  0  0  0  0  0  0  0  0
   -3.0000   -2.5981    0.0000 C   0  0  0  0  0  0  0  0  0  0  0  0
   -3.7500   -1.2990    0.0000 C   0  0  0  0  0  0  0  0  0  0  0  0
   -5.2500   -1.2990    0.0000 C   0  0  0  0  0  0  0  0  0  0  0  0
   -6.7500   -1.2990    0.0000 N   0  0  0  0  0  0  0  0  0  0  0  0
   -3.0000    0.0000    0.0000 C   0  0  0  0  0  0  0  0  0  0  0  0
   -3.7500    1.2990    0.0000 N   0  0  0  0  0  0  0  0  0  0  0  0
   -3.0000    2.5981    0.0000 C   0  0  0  0  0  0  0  0  0  0  0  0
   -1.5000    2.5981    0.0000 C   0  0  0  0  0  0  0  0  0  0  0  0
   -0.7500    3.8971    0.0000 C   0  0  0  0  0  0  0  0  0  0  0  0
   -1.5000    5.1962    0.0000 C   0  0  0  0  0  0  0  0  0  0  0  0
   -0.7500    6.4952    0.0000 O   0  0  0  0  0  0  0  0  0  0  0  0
    0.7500    6.4952    0.0000 C   0  0  0  0  0  0  0  0  0  0  0  0
    1.5000    7.7942    0.0000 C   0  0  0  0  0  0  0  0  0  0  0  0
    3.0000    7.7942    0.0000 C   0  0  0  0  0  0  0  0  0  0  0  0
    3.7500    9.0933    0.0000 C   0  0  0  0  0  0  0  0  0  0  0  0
    3.0000   10.3923    0.0000 C   0  0  0  0  0  0  0  0  0  0  0  0
    1.5000   10.3923    0.0000 C   0  0  0  0  0  0  0  0  0  0  0  0
    0.7500   11.6913    0.0000 F   0  0  0  0  0  0  0  0  0  0  0  0
    0.7500    9.0933    0.0000 C   0  0  0  0  0  0  0  0  0  0  0  0
   -3.0000    5.1962    0.0000 C   0  0  0  0  0  0  0  0  0  0  0  0
   -3.7500    6.4952    0.0000 Cl  0  0  0  0  0  0  0  0  0  0  0  0
   -3.7500    3.8971    0.0000 C   0  0  0  0  0  0  0  0  0  0  0  0
   -1.5000    0.0000    0.0000 C   0  0  0  0  0  0  0  0  0  0  0  0
   -0.7500    1.2990    0.0000 C   0  0  0  0  0  0  0  0  0  0  0  0
    0.7500    1.2990    0.0000 C   0  0  0  0  0  0  0  0  0  0  0  0
    1.5000    2.5981    0.0000 N   0  0  0  0  0  0  0  0  0  0  0  0
    3.0000    2.5981    0.0000 C   0  0  0  0  0  0  0  0  0  0  0  0
    3.7500    1.2990    0.0000 O   0  0  0  0  0  0  0  0  0  0  0  0
    3.7500    3.8971    0.0000 C   0  0  0  0  0  0  0  0  0  0  0  0
    5.2500    3.8971    0.0000 C   0  0  0  0  0  0  0  0  0  0  0  0
    6.0000    5.1962    0.0000 C   0  0  0  0  0  0  0  0  0  0  0  0
    7.5000    5.1962    0.0000 N   0  0  0  0  0  0  0  0  0  0  0  0
    8.2500    6.4952    0.0000 C   0  0  0  0  0  0  0  0  0  0  0  0
    8.2500    3.8971    0.0000 C   0  0  0  0  0  0  0  0  0  0  0  0
  1  2  1  0
  2  3  1  0
  3  4  1  0
  4  5  2  0
  5  6  1  0
  6  7  1  0
  7  8  1  0
  8  9  2  0
  9 10  1  0
 10 11  3  0
  9 12  1  0
 12 13  2  3
 13 14  1  0
 14 15  2  0
 15 16  1  0
 16 17  2  0
 17 18  1  0
 18 19  1  0
 19 20  1  0
 20 21  2  0
 21 22  1  0
 22 23  2  0
 23 24  1  0
 24 25  1  0
 24 26  2  0
 17 27  1  0
 27 28  1  0
 27 29  2  0
 12 30  1  0
 30 31  1  0
 31 32  2  0
 32 33  1  0
 33 34  1  0
 34 35  2  0
 34 36  1  0
 36 37  2  3
 37 38  1  0
 38 39  1  0
 39 40  1  0
 39 41  1  0
 32  4  1  0
 30  6  2  0
 29 14  1  0
 26 20  1  0
M  END
>  <Synonyms>  (337) 
HKI-357

>  <Research Codes>  (337) 
nan

>  <Phase>  (337) 
1

>  <Applicants>  (337) 
nan

>  <USAN Stem>  (337) 
nan

>  <USAN Year>  (337) 
nan

>  <USAN Stem Definition>  (337) 
nan

>  <USAN Stem Substem>  (337) 
nan

>  <First Approval>  (337) 
nan

>  <ATC Codes>  (337) 
nan

>  <Level 4 ATC Codes>  (337) 
nan

>  <Level 3 ATC Codes>  (337) 
nan

>  <Level 2 ATC Codes>  (337) 
nan

>  <Level 1 ATC Codes>  (337) 
nan

>  <Indication Class>  (337) 
nan

>  <Patent>  (337) 
nan

>  <Drug Type>  (337) 
1:Synthetic Small Molecule

>  <Passes Rule of Five>  (337) 
False

>  <First In Class>  (337) 
False

>  <Chirality>  (337) 
Achiral Molecule

>  <Prodrug>  (337) 
False

>  <Oral>  (337) 
False

>  <Parenteral>  (337) 
False

>  <Topical>  (337) 
False

>  <Black Box>  (337) 
False

>  <Availability Type>  (337) 
Unknown

>  <Withdrawn Year>  (337) 
nan

>  <Withdrawn Reason>  (337) 
nan

>  <Withdrawn Country>  (337) 
nan

>  <Withdrawn Class>  (337) 
nan

>  <SMILES>  (337) 
CCOc1cc2ncc(C#N)c(Nc3ccc(OCc4cccc(F)c4)c(Cl)c3)c2cc1NC(=O)/C=C/CN(C)C

>  <InChi Key>  (337) 
NERXPXBELDBEPZ-UHFFFAOYSA-N

$$$$
CHEMBL3545328
     RDKit          2D

 33 37  0  0  0  0  0  0  0  0999 V2000
   -0.7500   -3.8971    0.0000 O   0  0  0  0  0  0  0  0  0  0  0  0
    0.7500   -3.8971    0.0000 C   0  0  0  0  0  0  0  0  0  0  0  0
    1.5000   -2.5981    0.0000 N   0  0  0  0  0  0  0  0  0  0  0  0
    0.7500   -1.2990    0.0000 C   0  0  0  0  0  0  0  0  0  0  0  0
    1.5000    0.0000    0.0000 C   0  0  0  0  0  0  0  0  0  0  0  0
    0.7500    1.2990    0.0000 C   0  0  0  0  0  0  0  0  0  0  0  0
   -0.7500    1.2990    0.0000 C   0  0  0  0  0  0  0  0  0  0  0  0
   -1.5000    2.5981    0.0000 C   0  0  0  0  0  0  0  0  0  0  0  0
   -0.7500    3.8971    0.0000 C   0  0  0  0  0  0  0  0  0  0  0  0
   -1.5000    5.1962    0.0000 C   0  0  0  0  0  0  0  0  0  0  0  0
   -3.0000    5.1962    0.0000 N   0  0  0  0  0  0  0  0  0  0  0  0
   -3.7500    3.8971    0.0000 C   0  0  0  0  0  0  0  0  0  0  0  0
   -5.2500    3.8971    0.0000 N   0  0  0  0  0  0  0  0  0  0  0  0
   -6.0000    5.1962    0.0000 C   0  0  0  0  0  0  0  0  0  0  0  0
   -5.2500    6.4952    0.0000 C   0  0  0  0  0  0  0  0  0  0  0  0
   -6.0000    7.7942    0.0000 C   0  0  0  0  0  0  0  0  0  0  0  0
   -7.5000    7.7942    0.0000 C   0  0  0  0  0  0  0  0  0  0  0  0
   -8.2500    9.0933    0.0000 N   0  0  0  0  0  0  0  0  0  0  0  0
   -7.5000   10.3923    0.0000 C   0  0  0  0  0  0  0  0  0  0  0  0
   -8.2500   11.6913    0.0000 C   0  0  0  0  0  0  0  0  0  0  0  0
   -9.7500   11.6913    0.0000 O   0  0  0  0  0  0  0  0  0  0  0  0
  -10.5000   10.3923    0.0000 C   0  0  0  0  0  0  0  0  0  0  0  0
   -9.7500    9.0933    0.0000 C   0  0  0  0  0  0  0  0  0  0  0  0
   -8.2500    6.4952    0.0000 C   0  0  0  0  0  0  0  0  0  0  0  0
   -7.5000    5.1962    0.0000 C   0  0  0  0  0  0  0  0  0  0  0  0
   -3.0000    2.5981    0.0000 N   0  0  0  0  0  0  0  0  0  0  0  0
   -1.5000    0.0000    0.0000 C   0  0  0  0  0  0  0  0  0  0  0  0
   -0.7500   -1.2990    0.0000 C   0  0  0  0  0  0  0  0  0  0  0  0
    1.5000   -5.1962    0.0000 C   0  0  0  0  0  0  0  0  0  0  0  0
    2.9918   -5.3529    0.0000 C   0  0  0  0  0  0  0  0  0  0  0  0
    3.3037   -6.8202    0.0000 C   0  0  0  0  0  0  0  0  0  0  0  0
    2.0046   -7.5702    0.0000 C   0  0  0  0  0  0  0  0  0  0  0  0
    0.8899   -6.5665    0.0000 N   0  0  0  0  0  0  0  0  0  0  0  0
  1  2  2  0
  2  3  1  0
  3  4  1  0
  4  5  2  0
  5  6  1  0
  6  7  2  0
  7  8  1  0
  8  9  1  0
  9 10  2  0
 10 11  1  0
 11 12  1  0
 12 13  2  3
 13 14  1  0
 14 15  2  0
 15 16  1  0
 16 17  2  0
 17 18  1  0
 18 19  1  0
 19 20  1  0
 20 21  1  0
 21 22  1  0
 22 23  1  0
 17 24  1  0
 24 25  2  0
 12 26  1  0
  7 27  1  0
 27 28  2  0
  2 29  1  0
 29 30  1  0
 30 31  1  0
 31 32  1  0
 32 33  1  0
 28  4  1  0
 33 29  1  0
 26  8  2  0
 25 14  1  0
 23 18  1  0
M  END
>  <Synonyms>  (338) 
XL-019|XL019

>  <Research Codes>  (338) 
XL019

>  <Phase>  (338) 
1

>  <Applicants>  (338) 
nan

>  <USAN Stem>  (338) 
nan

>  <USAN Year>  (338) 
nan

>  <USAN Stem Definition>  (338) 
nan

>  <USAN Stem Substem>  (338) 
nan

>  <First Approval>  (338) 
nan

>  <ATC Codes>  (338) 
nan

>  <Level 4 ATC Codes>  (338) 
nan

>  <Level 3 ATC Codes>  (338) 
nan

>  <Level 2 ATC Codes>  (338) 
nan

>  <Level 1 ATC Codes>  (338) 
nan

>  <Indication Class>  (338) 
nan

>  <Patent>  (338) 
nan

>  <Drug Type>  (338) 
1:Synthetic Small Molecule

>  <Passes Rule of Five>  (338) 
True

>  <First In Class>  (338) 
False

>  <Chirality>  (338) 
Racemic Mixture

>  <Prodrug>  (338) 
False

>  <Oral>  (338) 
False

>  <Parenteral>  (338) 
False

>  <Topical>  (338) 
False

>  <Black Box>  (338) 
False

>  <Availability Type>  (338) 
Unknown

>  <Withdrawn Year>  (338) 
nan

>  <Withdrawn Reason>  (338) 
nan

>  <Withdrawn Country>  (338) 
nan

>  <Withdrawn Class>  (338) 
nan

>  <SMILES>  (338) 
O=C(Nc1ccc(-c2ccnc(Nc3ccc(N4CCOCC4)cc3)n2)cc1)C1CCCN1

>  <InChi Key>  (338) 
ISOCDPQFIXDIMS-UHFFFAOYSA-N

$$$$
CHEMBL3527358
     RDKit          2D

 30 32  0  0  0  0  0  0  0  0999 V2000
   -0.4330    5.9462    0.0000 C   0  0  0  0  0  0  0  0  0  0  0  0
    0.3170    4.6471    0.0000 O   0  0  0  0  0  0  0  0  0  0  0  0
   -0.4330    3.3481    0.0000 C   0  0  0  0  0  0  0  0  0  0  0  0
    0.3170    2.0490    0.0000 C   0  0  0  0  0  0  0  0  0  0  0  0
    1.8170    2.0490    0.0000 C   0  0  0  0  0  0  0  0  0  0  0  0
    2.0775    0.5718    0.0000 C   0  0  0  0  0  0  0  0  0  0  0  0
    3.2265    2.5621    0.0000 O   0  0  0  0  0  0  0  0  0  0  0  0
    2.0775    3.5262    0.0000 C   0  0  0  0  0  0  0  0  0  0  0  0
    1.5644    4.9358    0.0000 C   0  0  0  0  0  0  0  0  0  0  0  0
    2.5286    6.0849    0.0000 C   0  0  0  0  0  0  0  0  0  0  0  0
    2.0156    7.4944    0.0000 C   0  0  0  0  0  0  0  0  0  0  0  0
    2.9798    8.6435    0.0000 C   0  0  0  0  0  0  0  0  0  0  0  0
    0.5384    7.7549    0.0000 C   0  0  0  0  0  0  0  0  0  0  0  0
   -0.4330    0.7500    0.0000 C   0  0  0  0  0  0  0  0  0  0  0  0
   -1.9330    0.7500    0.0000 C   0  0  0  0  0  0  0  0  0  0  0  0
   -2.6830    2.0490    0.0000 C   0  0  0  0  0  0  0  0  0  0  0  0
   -1.9330    3.3481    0.0000 C   0  0  0  0  0  0  0  0  0  0  0  0
   -2.6830    4.6471    0.0000 O   0  0  0  0  0  0  0  0  0  0  0  0
   -4.1830    4.6471    0.0000 C   0  0  0  0  0  0  0  0  0  0  0  0
   -4.9330    3.3481    0.0000 O   0  0  0  0  0  0  0  0  0  0  0  0
   -4.9330    5.9462    0.0000 N   0  0  0  0  0  0  0  0  0  0  0  0
   -6.4330    5.9462    0.0000 C   0  0  0  0  0  0  0  0  0  0  0  0
   -7.1830    4.6471    0.0000 C   0  0  0  0  0  0  0  0  0  0  0  0
   -8.6830    4.6471    0.0000 N   0  0  0  0  0  0  0  0  0  0  0  0
   -6.4330    3.3481    0.0000 O   0  0  0  0  0  0  0  0  0  0  0  0
   -7.1830    7.2452    0.0000 C   0  0  0  0  0  0  0  0  0  0  0  0
   -8.6830    7.2452    0.0000 C   0  0  0  0  0  0  0  0  0  0  0  0
   -6.4330    8.5442    0.0000 C   0  0  0  0  0  0  0  0  0  0  0  0
    0.8660    0.0000    0.0000 C   0  0  0  0  0  0  0  0  0  0  0  0
   -0.4330   -0.7500    0.0000 O   0  0  0  0  0  0  0  0  0  0  0  0
  1  2  1  0
  3  2  1  1
  3  4  1  0
  4  5  1  0
  5  6  1  1
  5  7  1  0
  7  8  1  0
  8  9  1  1
  9 10  1  0
 10 11  2  3
 11 12  1  0
 11 13  1  0
  4 14  1  6
 14 15  1  1
 15 16  1  0
 16 17  1  0
 17 18  1  1
 18 19  1  0
 19 20  2  0
 19 21  1  0
 21 22  1  0
 22 23  1  0
 23 24  1  0
 23 25  2  0
 22 26  1  0
 26 27  1  0
 26 28  1  0
 14 29  1  0
 29 30  1  0
 17  3  1  0
  8  5  1  0
 30 14  1  0
M  END
>  <Synonyms>  (339) 
PPI-2458

>  <Research Codes>  (339) 
nan

>  <Phase>  (339) 
1

>  <Applicants>  (339) 
nan

>  <USAN Stem>  (339) 
nan

>  <USAN Year>  (339) 
nan

>  <USAN Stem Definition>  (339) 
nan

>  <USAN Stem Substem>  (339) 
nan

>  <First Approval>  (339) 
nan

>  <ATC Codes>  (339) 
nan

>  <Level 4 ATC Codes>  (339) 
nan

>  <Level 3 ATC Codes>  (339) 
nan

>  <Level 2 ATC Codes>  (339) 
nan

>  <Level 1 ATC Codes>  (339) 
nan

>  <Indication Class>  (339) 
nan

>  <Patent>  (339) 
nan

>  <Drug Type>  (339) 
1:Synthetic Small Molecule

>  <Passes Rule of Five>  (339) 
True

>  <First In Class>  (339) 
False

>  <Chirality>  (339) 
Single Stereoisomer

>  <Prodrug>  (339) 
False

>  <Oral>  (339) 
False

>  <Parenteral>  (339) 
False

>  <Topical>  (339) 
False

>  <Black Box>  (339) 
False

>  <Availability Type>  (339) 
Unknown

>  <Withdrawn Year>  (339) 
nan

>  <Withdrawn Reason>  (339) 
nan

>  <Withdrawn Country>  (339) 
nan

>  <Withdrawn Class>  (339) 
nan

>  <SMILES>  (339) 
CO[C@H]1[C@H]([C@@]2(C)O[C@@H]2CC=C(C)C)[C@]2(CC[C@H]1OC(=O)N[C@@H](C(N)=O)C(C)C)CO2

>  <InChi Key>  (339) 
QBDVVYNLLXGUGN-RKMQWUMBSA-N

$$$$
CHEMBL2059028
     RDKit          2D

 54 58  0  0  0  0  0  0  0  0999 V2000
   -5.2500    3.8971    0.0000 C   0  0  0  0  0  0  0  0  0  0  0  0
   -3.7500    3.8971    0.0000 O   0  0  0  0  0  0  0  0  0  0  0  0
   -3.0000    2.5981    0.0000 C   0  0  0  0  0  0  0  0  0  0  0  0
   -3.7500    1.2990    0.0000 C   0  0  0  0  0  0  0  0  0  0  0  0
   -3.0000    0.0000    0.0000 C   0  0  0  0  0  0  0  0  0  0  0  0
   -3.7500   -1.2990    0.0000 C   0  0  0  0  0  0  0  0  0  0  0  0
   -5.2500   -1.2990    0.0000 O   0  0  0  0  0  0  0  0  0  0  0  0
   -3.0000   -2.5981    0.0000 C   0  0  0  0  0  0  0  0  0  0  0  0
   -1.5000   -2.5981    0.0000 O   0  0  0  0  0  0  0  0  0  0  0  0
   -3.7500   -3.8971    0.0000 N   0  0  0  0  0  0  0  0  0  0  0  0
   -5.2500   -3.8971    0.0000 C   0  0  0  0  0  0  0  0  0  0  0  0
   -3.0000   -5.1962    0.0000 C   0  0  0  0  0  0  0  0  0  0  0  0
   -3.7500   -6.4952    0.0000 C   0  0  0  0  0  0  0  0  0  0  0  0
   -5.2500   -6.4952    0.0000 C   0  0  0  0  0  0  0  0  0  0  0  0
   -6.0000   -7.7942    0.0000 C   0  0  0  0  0  0  0  0  0  0  0  0
   -7.5000   -7.7942    0.0000 C   0  0  0  0  0  0  0  0  0  0  0  0
   -8.2500   -6.4952    0.0000 C   0  0  0  0  0  0  0  0  0  0  0  0
   -9.7500   -6.4952    0.0000 Cl  0  0  0  0  0  0  0  0  0  0  0  0
   -7.5000   -5.1962    0.0000 C   0  0  0  0  0  0  0  0  0  0  0  0
   -6.0000   -5.1962    0.0000 C   0  0  0  0  0  0  0  0  0  0  0  0
   -1.5000   -5.1962    0.0000 C   0  0  0  0  0  0  0  0  0  0  0  0
   -0.7500   -3.8971    0.0000 O   0  0  0  0  0  0  0  0  0  0  0  0
   -0.7500   -6.4952    0.0000 N   0  0  0  0  0  0  0  0  0  0  0  0
   -1.5000   -7.7942    0.0000 C   0  0  0  0  0  0  0  0  0  0  0  0
   -0.7500   -9.0933    0.0000 C   0  0  0  0  0  0  0  0  0  0  0  0
    0.7500   -9.0933    0.0000 C   0  0  0  0  0  0  0  0  0  0  0  0
    1.5000  -10.3923    0.0000 C   0  0  0  0  0  0  0  0  0  0  0  0
    0.7500  -11.6913    0.0000 C   0  0  0  0  0  0  0  0  0  0  0  0
   -0.7500  -11.6913    0.0000 C   0  0  0  0  0  0  0  0  0  0  0  0
   -1.5000  -10.3923    0.0000 C   0  0  0  0  0  0  0  0  0  0  0  0
    0.7500   -6.4952    0.0000 C   0  0  0  0  0  0  0  0  0  0  0  0
    1.5000   -7.7942    0.0000 C   0  0  0  0  0  0  0  0  0  0  0  0
    3.0000   -7.7942    0.0000 C   0  0  0  0  0  0  0  0  0  0  0  0
    3.7500   -9.0933    0.0000 C   0  0  0  0  0  0  0  0  0  0  0  0
    5.2500   -9.0933    0.0000 C   0  0  0  0  0  0  0  0  0  0  0  0
    6.0000  -10.3923    0.0000 C   0  0  0  0  0  0  0  0  0  0  0  0
    5.2500  -11.6913    0.0000 N   0  0  0  0  0  0  0  0  0  0  0  0
    3.7500  -11.6913    0.0000 C   0  0  0  0  0  0  0  0  0  0  0  0
    3.0000  -10.3923    0.0000 C   0  0  0  0  0  0  0  0  0  0  0  0
    1.5000   -5.1962    0.0000 C   0  0  0  0  0  0  0  0  0  0  0  0
    0.7500   -3.8971    0.0000 C   0  0  0  0  0  0  0  0  0  0  0  0
    1.5000   -2.5981    0.0000 C   0  0  0  0  0  0  0  0  0  0  0  0
    0.7500   -1.2990    0.0000 C   0  0  0  0  0  0  0  0  0  0  0  0
    1.5000   -0.0000    0.0000 C   0  0  0  0  0  0  0  0  0  0  0  0
    3.0000   -0.0000    0.0000 N   0  0  0  0  0  0  0  0  0  0  0  0
    3.7500   -1.2990    0.0000 C   0  0  0  0  0  0  0  0  0  0  0  0
    3.0000   -2.5981    0.0000 C   0  0  0  0  0  0  0  0  0  0  0  0
   -1.5000   -0.0000    0.0000 C   0  0  0  0  0  0  0  0  0  0  0  0
   -0.7500    1.2990    0.0000 C   0  0  0  0  0  0  0  0  0  0  0  0
    0.7500    1.2990    0.0000 O   0  0  0  0  0  0  0  0  0  0  0  0
    1.5000    2.5981    0.0000 C   0  0  0  0  0  0  0  0  0  0  0  0
   -1.5000    2.5981    0.0000 C   0  0  0  0  0  0  0  0  0  0  0  0
   -0.7500    3.8971    0.0000 O   0  0  0  0  0  0  0  0  0  0  0  0
   -1.5000    5.1962    0.0000 C   0  0  0  0  0  0  0  0  0  0  0  0
  1  2  1  0
  2  3  1  0
  3  4  2  0
  4  5  1  0
  5  6  1  0
  6  7  2  0
  6  8  1  0
  8  9  2  0
  8 10  1  0
 10 11  1  0
 10 12  1  0
 12 13  1  0
 13 14  1  0
 14 15  2  0
 15 16  1  0
 16 17  2  0
 17 18  1  0
 17 19  1  0
 19 20  2  0
 12 21  1  0
 21 22  2  0
 21 23  1  0
 23 24  1  0
 24 25  1  0
 25 26  2  0
 26 27  1  0
 27 28  2  0
 28 29  1  0
 29 30  2  0
 23 31  1  0
 31 32  1  0
 32 33  1  0
 33 34  1  0
 34 35  2  0
 35 36  1  0
 36 37  2  0
 37 38  1  0
 38 39  2  0
 31 40  1  0
 40 41  1  0
 41 42  1  0
 42 43  2  0
 43 44  1  0
 44 45  2  0
 45 46  1  0
 46 47  2  0
  5 48  2  0
 48 49  1  0
 49 50  1  0
 50 51  1  0
 49 52  2  0
 52 53  1  0
 53 54  1  0
 52  3  1  0
 20 14  1  0
 30 25  1  0
 39 34  1  0
 47 42  1  0
M  END
>  <Synonyms>  (340) 
TIMCODAR|VX-853

>  <Research Codes>  (340) 
VX-853

>  <Phase>  (340) 
1

>  <Applicants>  (340) 
nan

>  <USAN Stem>  (340) 
'-dar'

>  <USAN Year>  (340) 
1998.0

>  <USAN Stem Definition>  (340) 
multidrug resistance inhibitors: pipecolic acid derivatives

>  <USAN Stem Substem>  (340) 
'-dar(-dar (-codar))'

>  <First Approval>  (340) 
nan

>  <ATC Codes>  (340) 
nan

>  <Level 4 ATC Codes>  (340) 
nan

>  <Level 3 ATC Codes>  (340) 
nan

>  <Level 2 ATC Codes>  (340) 
nan

>  <Level 1 ATC Codes>  (340) 
nan

>  <Indication Class>  (340) 
nan

>  <Patent>  (340) 
nan

>  <Drug Type>  (340) 
1:Synthetic Small Molecule

>  <Passes Rule of Five>  (340) 
False

>  <First In Class>  (340) 
False

>  <Chirality>  (340) 
Single Stereoisomer

>  <Prodrug>  (340) 
False

>  <Oral>  (340) 
False

>  <Parenteral>  (340) 
False

>  <Topical>  (340) 
False

>  <Black Box>  (340) 
False

>  <Availability Type>  (340) 
Unknown

>  <Withdrawn Year>  (340) 
nan

>  <Withdrawn Reason>  (340) 
nan

>  <Withdrawn Country>  (340) 
nan

>  <Withdrawn Class>  (340) 
nan

>  <SMILES>  (340) 
COc1cc(C(=O)C(=O)N(C)[C@@H](Cc2ccc(Cl)cc2)C(=O)N(Cc2ccccc2)C(CCc2ccncc2)CCc2ccncc2)cc(OC)c1OC

>  <InChi Key>  (340) 
MQSMWZHHUGSULF-UHFFFAOYSA-N

$$$$
CHEMBL2103852
     RDKit          2D

 26 28  0  0  0  0  0  0  0  0999 V2000
    5.2500   -6.4952    0.0000 C   0  0  0  0  0  0  0  0  0  0  0  0
    6.0000   -5.1962    0.0000 O   0  0  0  0  0  0  0  0  0  0  0  0
    5.2500   -3.8971    0.0000 C   0  0  0  0  0  0  0  0  0  0  0  0
    3.7500   -3.8971    0.0000 C   0  0  0  0  0  0  0  0  0  0  0  0
    3.0000   -2.5981    0.0000 C   0  0  0  0  0  0  0  0  0  0  0  0
    1.5000   -2.5981    0.0000 C   0  0  0  0  0  0  0  0  0  0  0  0
    0.7500   -3.8971    0.0000 C   0  0  0  0  0  0  0  0  0  0  0  0
    1.5000   -5.1962    0.0000 C   0  0  0  0  0  0  0  0  0  0  0  0
    2.2500   -6.4952    0.0000 N   0  0  0  0  0  0  0  0  0  0  0  0
   -0.7500   -3.8971    0.0000 C   0  0  0  0  0  0  0  0  0  0  0  0
   -1.5000   -5.1962    0.0000 N   0  0  0  0  0  0  0  0  0  0  0  0
   -1.5000   -2.5981    0.0000 O   0  0  0  0  0  0  0  0  0  0  0  0
   -0.7500   -1.2990    0.0000 C   0  0  0  0  0  0  0  0  0  0  0  0
    0.7500   -1.2990    0.0000 C   0  0  0  0  0  0  0  0  0  0  0  0
    1.5000    0.0000    0.0000 C   0  0  0  0  0  0  0  0  0  0  0  0
    0.7500    1.2990    0.0000 C   0  0  0  0  0  0  0  0  0  0  0  0
   -0.7500    1.2990    0.0000 C   0  0  0  0  0  0  0  0  0  0  0  0
   -1.5000    2.5981    0.0000 N   0  0  0  0  0  0  0  0  0  0  0  0
   -1.5000    0.0000    0.0000 C   0  0  0  0  0  0  0  0  0  0  0  0
   -3.0000    0.0000    0.0000 N   0  0  0  0  0  0  0  0  0  0  0  0
    3.7500   -1.2990    0.0000 C   0  0  0  0  0  0  0  0  0  0  0  0
    5.2500   -1.2990    0.0000 C   0  0  0  0  0  0  0  0  0  0  0  0
    6.0000    0.0000    0.0000 Br  0  0  0  0  0  0  0  0  0  0  0  0
    6.0000   -2.5981    0.0000 C   0  0  0  0  0  0  0  0  0  0  0  0
    7.5000   -2.5981    0.0000 O   0  0  0  0  0  0  0  0  0  0  0  0
    8.2500   -3.8971    0.0000 C   0  0  0  0  0  0  0  0  0  0  0  0
  1  2  1  0
  2  3  1  0
  3  4  2  0
  4  5  1  0
  6  5  1  1
  6  7  1  0
  7  8  1  0
  8  9  3  0
  7 10  1  0
 10 11  2  0
 10 12  1  0
 12 13  1  0
 13 14  2  0
 14 15  1  0
 15 16  2  0
 16 17  1  0
 17 18  1  0
 17 19  2  0
 19 20  1  0
  5 21  2  0
 21 22  1  0
 22 23  1  0
 22 24  2  0
 24 25  1  0
 25 26  1  0
 24  3  1  0
 14  6  1  0
 19 13  1  0
M  END
>  <Synonyms>  (341) 
CROLIBULIN|EPC 2407|EPC-2407|EPC2407

>  <Research Codes>  (341) 
EPC 2407|EPC-2407|EPC2407

>  <Phase>  (341) 
1

>  <Applicants>  (341) 
nan

>  <USAN Stem>  (341) 
'-bulin'

>  <USAN Year>  (341) 
2010.0

>  <USAN Stem Definition>  (341) 
antineoplastics (mitotic inhibitors,tubulin binders

>  <USAN Stem Substem>  (341) 
'-bulin(-bulin)'

>  <First Approval>  (341) 
nan

>  <ATC Codes>  (341) 
nan

>  <Level 4 ATC Codes>  (341) 
nan

>  <Level 3 ATC Codes>  (341) 
nan

>  <Level 2 ATC Codes>  (341) 
nan

>  <Level 1 ATC Codes>  (341) 
nan

>  <Indication Class>  (341) 
nan

>  <Patent>  (341) 
nan

>  <Drug Type>  (341) 
1:Synthetic Small Molecule

>  <Passes Rule of Five>  (341) 
True

>  <First In Class>  (341) 
False

>  <Chirality>  (341) 
Single Stereoisomer

>  <Prodrug>  (341) 
False

>  <Oral>  (341) 
False

>  <Parenteral>  (341) 
False

>  <Topical>  (341) 
False

>  <Black Box>  (341) 
False

>  <Availability Type>  (341) 
Unknown

>  <Withdrawn Year>  (341) 
nan

>  <Withdrawn Reason>  (341) 
nan

>  <Withdrawn Country>  (341) 
nan

>  <Withdrawn Class>  (341) 
nan

>  <SMILES>  (341) 
COc1cc([C@H]2C(C#N)=C(N)Oc3c2ccc(N)c3N)cc(Br)c1OC

>  <InChi Key>  (341) 
ANTUWCUHGWGJQS-LNUXAPHWSA-N

$$$$
CHEMBL273453
     RDKit          2D

 26 29  0  0  0  0  0  0  0  0999 V2000
    2.2500   -1.2990    0.0000 C   0  0  0  0  0  0  0  0  0  0  0  0
    0.7500   -1.2990    0.0000 C   0  0  0  0  0  0  0  0  0  0  0  0
    1.5000    0.0000    0.0000 C   0  0  0  0  0  0  0  0  0  0  0  0
    0.7500    1.2990    0.0000 C   0  0  0  0  0  0  0  0  0  0  0  0
   -0.7500    1.2990    0.0000 C   0  0  0  0  0  0  0  0  0  0  0  0
   -1.5000    2.5981    0.0000 O   0  0  0  0  0  0  0  0  0  0  0  0
   -1.5000    0.0000    0.0000 C   0  0  0  0  0  0  0  0  0  0  0  0
   -0.7500   -1.2990    0.0000 C   0  0  0  0  0  0  0  0  0  0  0  0
   -1.5000   -2.5981    0.0000 C   0  0  0  0  0  0  0  0  0  0  0  0
   -0.7500   -3.8971    0.0000 C   0  0  0  0  0  0  0  0  0  0  0  0
    0.7500   -3.8971    0.0000 C   0  0  0  0  0  0  0  0  0  0  0  0
    1.5000   -2.5981    0.0000 C   0  0  0  0  0  0  0  0  0  0  0  0
    3.0000   -2.5981    0.0000 C   0  0  0  0  0  0  0  0  0  0  0  0
    3.7500   -1.2990    0.0000 O   0  0  0  0  0  0  0  0  0  0  0  0
    3.7500   -3.8971    0.0000 C   0  0  0  0  0  0  0  0  0  0  0  0
    3.0000   -5.1962    0.0000 C   0  0  0  0  0  0  0  0  0  0  0  0
    4.4918   -5.3529    0.0000 C   0  0  0  0  0  0  0  0  0  0  0  0
    5.3735   -4.1394    0.0000 O   0  0  0  0  0  0  0  0  0  0  0  0
    3.4635   -6.6227    0.0000 C   0  0  0  0  0  0  0  0  0  0  0  0
    4.8901   -7.0863    0.0000 C   0  0  0  0  0  0  0  0  0  0  0  0
    6.0048   -6.0826    0.0000 O   0  0  0  0  0  0  0  0  0  0  0  0
    5.2020   -8.5535    0.0000 C   0  0  0  0  0  0  0  0  0  0  0  0
    6.6286   -9.0170    0.0000 O   0  0  0  0  0  0  0  0  0  0  0  0
    2.2500   -7.5044    0.0000 C   0  0  0  0  0  0  0  0  0  0  0  0
    1.0365   -6.6227    0.0000 C   0  0  0  0  0  0  0  0  0  0  0  0
    1.5000   -5.1962    0.0000 C   0  0  0  0  0  0  0  0  0  0  0  0
  2  1  1  1
  2  3  1  0
  3  4  1  0
  4  5  1  0
  5  6  2  0
  5  7  1  0
  7  8  2  0
  8  9  1  0
  9 10  1  0
 11 10  1  6
 11 12  1  0
 12 13  1  1
 13 14  1  1
 13 15  1  0
 15 16  1  0
 16 17  1  1
 17 18  2  0
 16 19  1  0
 19 20  1  0
 20 21  2  0
 20 22  1  0
 22 23  1  0
 19 24  1  0
 24 25  1  0
 26 25  1  1
  8  2  1  0
 26 11  1  0
 12  2  1  0
 26 16  1  0
M  END
>  <Synonyms>  (342) 
ALDOSTERONE|NSC-73856

>  <Research Codes>  (342) 
NSC-73856

>  <Phase>  (342) 
1

>  <Applicants>  (342) 
nan

>  <USAN Stem>  (342) 
'-ster-'

>  <USAN Year>  (342) 
nan

>  <USAN Stem Definition>  (342) 
steroids (androgens, anabolics)

>  <USAN Stem Substem>  (342) 
'-ster-(-ster-)'

>  <First Approval>  (342) 
nan

>  <ATC Codes>  (342) 
H02AA01

>  <Level 4 ATC Codes>  (342) 
H02AA - Mineralocorticoids

>  <Level 3 ATC Codes>  (342) 
H02A - CORTICOSTEROIDS FOR SYSTEMIC USE, PLAIN

>  <Level 2 ATC Codes>  (342) 
H02 - CORTICOSTEROIDS FOR SYSTEMIC USE

>  <Level 1 ATC Codes>  (342) 
H - SYSTEMIC HORMONAL PREPARATIONS, EXCL. SEX HORMONES AND INSULINS

>  <Indication Class>  (342) 
nan

>  <Patent>  (342) 
nan

>  <Drug Type>  (342) 
7:Natural Product-derived

>  <Passes Rule of Five>  (342) 
True

>  <First In Class>  (342) 
False

>  <Chirality>  (342) 
Single Stereoisomer

>  <Prodrug>  (342) 
False

>  <Oral>  (342) 
False

>  <Parenteral>  (342) 
False

>  <Topical>  (342) 
False

>  <Black Box>  (342) 
False

>  <Availability Type>  (342) 
Unknown

>  <Withdrawn Year>  (342) 
nan

>  <Withdrawn Reason>  (342) 
nan

>  <Withdrawn Country>  (342) 
nan

>  <Withdrawn Class>  (342) 
nan

>  <SMILES>  (342) 
C[C@]12CCC(=O)C=C1CC[C@@H]1[C@@H]2[C@@H](O)C[C@]2(C=O)[C@@H](C(=O)CO)CC[C@@H]12

>  <InChi Key>  (342) 
PQSUYGKTWSAVDQ-LNXQYSHSSA-N

$$$$
CHEMBL311300
     RDKit          2D

 18 20  0  0  0  0  0  0  0  0999 V2000
   -4.9294    1.5000    0.0000 N   0  0  0  0  0  0  0  0  0  0  0  0
   -3.6304    0.7500    0.0000 C   0  0  0  0  0  0  0  0  0  0  0  0
   -2.3313    1.5000    0.0000 N   0  0  0  0  0  0  0  0  0  0  0  0
   -1.0323    0.7500    0.0000 C   0  0  0  0  0  0  0  0  0  0  0  0
    0.3943    1.2135    0.0000 C   0  0  0  0  0  0  0  0  0  0  0  0
    0.8578    2.6401    0.0000 C   0  0  0  0  0  0  0  0  0  0  0  0
    2.3250    2.9520    0.0000 C   0  0  0  0  0  0  0  0  0  0  0  0
    3.3287    1.8373    0.0000 C   0  0  0  0  0  0  0  0  0  0  0  0
    4.7960    2.1491    0.0000 C   0  0  0  0  0  0  0  0  0  0  0  0
    5.2595    3.5757    0.0000 C   0  0  0  0  0  0  0  0  0  0  0  0
    4.2558    4.6904    0.0000 N   0  0  0  0  0  0  0  0  0  0  0  0
    2.7886    4.3786    0.0000 C   0  0  0  0  0  0  0  0  0  0  0  0
    1.2760    0.0000    0.0000 C   0  0  0  0  0  0  0  0  0  0  0  0
    0.3943   -1.2135    0.0000 N   0  0  0  0  0  0  0  0  0  0  0  0
   -1.0323   -0.7500    0.0000 C   0  0  0  0  0  0  0  0  0  0  0  0
   -2.3313   -1.5000    0.0000 C   0  0  0  0  0  0  0  0  0  0  0  0
   -2.3313   -3.0000    0.0000 O   0  0  0  0  0  0  0  0  0  0  0  0
   -3.6304   -0.7500    0.0000 N   0  0  0  0  0  0  0  0  0  0  0  0
  1  2  2  0
  2  3  1  0
  3  4  1  0
  4  5  1  0
  5  6  1  0
  6  7  1  0
  7  8  2  0
  8  9  1  0
  9 10  2  0
 10 11  1  0
 11 12  2  0
  5 13  2  0
 13 14  1  0
 14 15  1  0
 15 16  1  0
 16 17  2  0
 16 18  1  0
 18  2  1  0
 15  4  2  0
 12  7  1  0
M  END
>  <Synonyms>  (343) 
BCX-34|PELDESINE

>  <Research Codes>  (343) 
BCX-34

>  <Phase>  (343) 
1

>  <Applicants>  (343) 
nan

>  <USAN Stem>  (343) 
nan

>  <USAN Year>  (343) 
1995.0

>  <USAN Stem Definition>  (343) 
nan

>  <USAN Stem Substem>  (343) 
nan

>  <First Approval>  (343) 
nan

>  <ATC Codes>  (343) 
nan

>  <Level 4 ATC Codes>  (343) 
nan

>  <Level 3 ATC Codes>  (343) 
nan

>  <Level 2 ATC Codes>  (343) 
nan

>  <Level 1 ATC Codes>  (343) 
nan

>  <Indication Class>  (343) 
Antineoplastic; Antipsoriatic

>  <Patent>  (343) 
nan

>  <Drug Type>  (343) 
1:Synthetic Small Molecule

>  <Passes Rule of Five>  (343) 
True

>  <First In Class>  (343) 
False

>  <Chirality>  (343) 
Achiral Molecule

>  <Prodrug>  (343) 
False

>  <Oral>  (343) 
False

>  <Parenteral>  (343) 
False

>  <Topical>  (343) 
False

>  <Black Box>  (343) 
False

>  <Availability Type>  (343) 
Unknown

>  <Withdrawn Year>  (343) 
nan

>  <Withdrawn Reason>  (343) 
nan

>  <Withdrawn Country>  (343) 
nan

>  <Withdrawn Class>  (343) 
nan

>  <SMILES>  (343) 
Nc1nc2c(Cc3cccnc3)c[nH]c2c(=O)[nH]1

>  <InChi Key>  (343) 
DOHVAKFYAHLCJP-UHFFFAOYSA-N

$$$$
CHEMBL3182444
     RDKit          2D

 31 34  0  0  0  0  0  0  0  0999 V2000
   -1.8086   -3.4460    0.0000 O   0  0  0  0  0  0  0  0  0  0  0  0
   -0.3991   -2.9329    0.0000 C   0  0  0  0  0  0  0  0  0  0  0  0
   -0.1386   -1.4557    0.0000 O   0  0  0  0  0  0  0  0  0  0  0  0
    0.7500   -3.8971    0.0000 C   0  0  0  0  0  0  0  0  0  0  0  0
    1.5000   -2.5981    0.0000 C   0  0  0  0  0  0  0  0  0  0  0  0
    3.0000   -2.5981    0.0000 C   0  0  0  0  0  0  0  0  0  0  0  0
    3.7500   -3.8971    0.0000 C   0  0  0  0  0  0  0  0  0  0  0  0
    5.2500   -3.8971    0.0000 C   0  0  0  0  0  0  0  0  0  0  0  0
    6.0000   -2.5981    0.0000 C   0  0  0  0  0  0  0  0  0  0  0  0
    5.2500   -1.2990    0.0000 C   0  0  0  0  0  0  0  0  0  0  0  0
    6.0000   -0.0000    0.0000 N   0  0  0  0  0  0  0  0  0  0  0  0
    7.5000   -0.0000    0.0000 C   0  0  0  0  0  0  0  0  0  0  0  0
    8.3817    1.2135    0.0000 N   0  0  0  0  0  0  0  0  0  0  0  0
    9.8083    0.7500    0.0000 C   0  0  0  0  0  0  0  0  0  0  0  0
    9.8083   -0.7500    0.0000 C   0  0  0  0  0  0  0  0  0  0  0  0
    8.3817   -1.2135    0.0000 S   0  0  0  0  0  0  0  0  0  0  0  0
    3.7500   -1.2990    0.0000 N   0  0  0  0  0  0  0  0  0  0  0  0
    2.1595   -4.4101    0.0000 C   0  0  0  0  0  0  0  0  0  0  0  0
    2.4200   -5.8874    0.0000 C   0  0  0  0  0  0  0  0  0  0  0  0
    1.2709   -6.8515    0.0000 C   0  0  0  0  0  0  0  0  0  0  0  0
    1.5314   -8.3287    0.0000 O   0  0  0  0  0  0  0  0  0  0  0  0
    0.3824   -9.2929    0.0000 C   0  0  0  0  0  0  0  0  0  0  0  0
   -1.0272   -8.7799    0.0000 C   0  0  0  0  0  0  0  0  0  0  0  0
   -2.1763   -9.7441    0.0000 C   0  0  0  0  0  0  0  0  0  0  0  0
   -1.9158  -11.2213    0.0000 C   0  0  0  0  0  0  0  0  0  0  0  0
   -0.5062  -11.7343    0.0000 C   0  0  0  0  0  0  0  0  0  0  0  0
   -0.2458  -13.2115    0.0000 Cl  0  0  0  0  0  0  0  0  0  0  0  0
    0.6428  -10.7701    0.0000 C   0  0  0  0  0  0  0  0  0  0  0  0
    2.0524  -11.2832    0.0000 F   0  0  0  0  0  0  0  0  0  0  0  0
   -0.1386   -6.3385    0.0000 C   0  0  0  0  0  0  0  0  0  0  0  0
   -0.3991   -4.8613    0.0000 C   0  0  0  0  0  0  0  0  0  0  0  0
  1  2  2  0
  2  3  1  0
  2  4  1  0
  4  5  1  0
  5  6  1  0
  6  7  2  0
  7  8  1  0
  8  9  2  0
  9 10  1  0
 10 11  2  3
 11 12  1  0
 12 13  2  0
 13 14  1  0
 14 15  2  0
 15 16  1  0
 10 17  1  0
  4 18  1  0
 18 19  1  0
 19 20  1  0
 20 21  1  0
 21 22  1  0
 22 23  2  0
 23 24  1  0
 24 25  2  0
 25 26  1  0
 26 27  1  0
 26 28  2  0
 28 29  1  0
 20 30  1  0
 30 31  1  0
 31  4  1  0
 17  6  1  0
 28 22  1  0
 16 12  1  0
M  END
>  <Synonyms>  (344) 
MK 5108|MK-5108|MK5108|VX-689

>  <Research Codes>  (344) 
MK 5108|MK5108|VX-689

>  <Phase>  (344) 
1

>  <Applicants>  (344) 
nan

>  <USAN Stem>  (344) 
nan

>  <USAN Year>  (344) 
nan

>  <USAN Stem Definition>  (344) 
nan

>  <USAN Stem Substem>  (344) 
nan

>  <First Approval>  (344) 
nan

>  <ATC Codes>  (344) 
nan

>  <Level 4 ATC Codes>  (344) 
nan

>  <Level 3 ATC Codes>  (344) 
nan

>  <Level 2 ATC Codes>  (344) 
nan

>  <Level 1 ATC Codes>  (344) 
nan

>  <Indication Class>  (344) 
nan

>  <Patent>  (344) 
nan

>  <Drug Type>  (344) 
1:Synthetic Small Molecule

>  <Passes Rule of Five>  (344) 
False

>  <First In Class>  (344) 
False

>  <Chirality>  (344) 
Achiral Molecule

>  <Prodrug>  (344) 
False

>  <Oral>  (344) 
False

>  <Parenteral>  (344) 
False

>  <Topical>  (344) 
False

>  <Black Box>  (344) 
False

>  <Availability Type>  (344) 
Unknown

>  <Withdrawn Year>  (344) 
nan

>  <Withdrawn Reason>  (344) 
nan

>  <Withdrawn Country>  (344) 
nan

>  <Withdrawn Class>  (344) 
nan

>  <SMILES>  (344) 
O=C(O)C1(Cc2cccc(Nc3nccs3)n2)CCC(Oc2cccc(Cl)c2F)CC1

>  <InChi Key>  (344) 
LCVIRAZGMYMNNT-UHFFFAOYSA-N

$$$$
CHEMBL284121
     RDKit          2D

 30 32  0  0  0  0  0  0  0  0999 V2000
    1.5000   -5.1962    0.0000 C   0  0  0  0  0  0  0  0  0  0  0  0
    3.0000   -5.1962    0.0000 C   0  0  0  0  0  0  0  0  0  0  0  0
    3.7500   -3.8971    0.0000 C   0  0  0  0  0  0  0  0  0  0  0  0
    3.0000   -2.5981    0.0000 C   0  0  0  0  0  0  0  0  0  0  0  0
    1.5000   -2.5981    0.0000 C   0  0  0  0  0  0  0  0  0  0  0  0
    0.7500   -1.2990    0.0000 C   0  0  0  0  0  0  0  0  0  0  0  0
    1.5000    0.0000    0.0000 C   0  0  0  0  0  0  0  0  0  0  0  0
    0.7500    1.2990    0.0000 C   0  0  0  0  0  0  0  0  0  0  0  0
   -0.7500    1.2990    0.0000 C   0  0  0  0  0  0  0  0  0  0  0  0
   -1.5000    0.0000    0.0000 C   0  0  0  0  0  0  0  0  0  0  0  0
   -2.3817    1.2135    0.0000 C   0  0  0  0  0  0  0  0  0  0  0  0
   -2.9672   -0.3119    0.0000 C   0  0  0  0  0  0  0  0  0  0  0  0
   -4.0819    0.6918    0.0000 C   0  0  0  0  0  0  0  0  0  0  0  0
   -5.5085    0.2283    0.0000 C   0  0  0  0  0  0  0  0  0  0  0  0
   -3.7701    2.1590    0.0000 C   0  0  0  0  0  0  0  0  0  0  0  0
   -4.8848    3.1627    0.0000 C   0  0  0  0  0  0  0  0  0  0  0  0
   -5.9995    4.1664    0.0000 C   0  0  0  0  0  0  0  0  0  0  0  0
   -7.1142    5.1701    0.0000 C   0  0  0  0  0  0  0  0  0  0  0  0
   -8.1179    4.0554    0.0000 C   0  0  0  0  0  0  0  0  0  0  0  0
   -6.1105    6.2849    0.0000 C   0  0  0  0  0  0  0  0  0  0  0  0
   -8.2289    6.1738    0.0000 O   0  0  0  0  0  0  0  0  0  0  0  0
   -3.1240   -1.8037    0.0000 C   0  0  0  0  0  0  0  0  0  0  0  0
   -1.7537   -2.4138    0.0000 C   0  0  0  0  0  0  0  0  0  0  0  0
   -0.7500   -1.2990    0.0000 C   0  0  0  0  0  0  0  0  0  0  0  0
    5.2500   -3.8971    0.0000 C   0  0  0  0  0  0  0  0  0  0  0  0
    6.0000   -5.1962    0.0000 C   0  0  0  0  0  0  0  0  0  0  0  0
    7.5000   -5.1962    0.0000 O   0  0  0  0  0  0  0  0  0  0  0  0
    5.2500   -6.4952    0.0000 C   0  0  0  0  0  0  0  0  0  0  0  0
    3.7500   -6.4952    0.0000 C   0  0  0  0  0  0  0  0  0  0  0  0
    3.0000   -7.7942    0.0000 O   0  0  0  0  0  0  0  0  0  0  0  0
  1  2  2  0
  2  3  1  0
  3  4  2  0
  4  5  1  0
  5  6  2  0
  6  7  1  0
  7  8  1  0
  8  9  1  0
  9 10  1  0
 10 11  1  6
 10 12  1  0
 12 13  1  0
 13 14  1  6
 13 15  1  0
 15 16  1  0
 16 17  3  0
 17 18  1  0
 18 19  1  0
 18 20  1  0
 18 21  1  0
 12 22  2  0
 22 23  1  0
 24 23  1  6
  3 25  1  0
 25 26  1  0
 26 27  1  1
 26 28  1  0
 28 29  1  0
 29 30  1  6
 29  2  1  0
 24  6  1  0
 24 10  1  0
M  END
>  <Synonyms>  (345) 
BXL 353|ILX23-7553|ILX7553|Ro-23-7553

>  <Research Codes>  (345) 
BXL-353|ILX-7553|Ro-23-7553

>  <Phase>  (345) 
1

>  <Applicants>  (345) 
nan

>  <USAN Stem>  (345) 
nan

>  <USAN Year>  (345) 
nan

>  <USAN Stem Definition>  (345) 
nan

>  <USAN Stem Substem>  (345) 
nan

>  <First Approval>  (345) 
nan

>  <ATC Codes>  (345) 
nan

>  <Level 4 ATC Codes>  (345) 
nan

>  <Level 3 ATC Codes>  (345) 
nan

>  <Level 2 ATC Codes>  (345) 
nan

>  <Level 1 ATC Codes>  (345) 
nan

>  <Indication Class>  (345) 
nan

>  <Patent>  (345) 
nan

>  <Drug Type>  (345) 
7:Natural Product-derived

>  <Passes Rule of Five>  (345) 
True

>  <First In Class>  (345) 
False

>  <Chirality>  (345) 
Single Stereoisomer

>  <Prodrug>  (345) 
False

>  <Oral>  (345) 
False

>  <Parenteral>  (345) 
False

>  <Topical>  (345) 
False

>  <Black Box>  (345) 
False

>  <Availability Type>  (345) 
Unknown

>  <Withdrawn Year>  (345) 
nan

>  <Withdrawn Reason>  (345) 
nan

>  <Withdrawn Country>  (345) 
nan

>  <Withdrawn Class>  (345) 
nan

>  <SMILES>  (345) 
C=C1/C(=C\C=C2/CCC[C@]3(C)C([C@H](C)CC#CC(C)(C)O)=CC[C@@H]23)C[C@@H](O)C[C@@H]1O

>  <InChi Key>  (345) 
JKFZMIQMKFWJAY-RQJQXFIZSA-N

$$$$
CHEMBL505348
     RDKit          2D

 10 10  0  0  0  0  0  0  0  0999 V2000
    3.0000    0.0000    0.0000 O   0  0  0  0  0  0  0  0  0  0  0  0
    1.5000    0.0000    0.0000 C   0  0  0  0  0  0  0  0  0  0  0  0
    0.7500   -1.2990    0.0000 C   0  0  0  0  0  0  0  0  0  0  0  0
   -0.7500   -1.2990    0.0000 O   0  0  0  0  0  0  0  0  0  0  0  0
   -1.5000    0.0000    0.0000 C   0  0  0  0  0  0  0  0  0  0  0  0
   -3.0000    0.0000    0.0000 O   0  0  0  0  0  0  0  0  0  0  0  0
   -0.7500    1.2990    0.0000 C   0  0  0  0  0  0  0  0  0  0  0  0
   -1.5000    2.5981    0.0000 O   0  0  0  0  0  0  0  0  0  0  0  0
    0.7500    1.2990    0.0000 C   0  0  0  0  0  0  0  0  0  0  0  0
    1.5000    2.5981    0.0000 O   0  0  0  0  0  0  0  0  0  0  0  0
  2  1  1  1
  2  3  1  0
  3  4  1  0
  4  5  1  0
  5  6  1  1
  5  7  1  0
  7  8  1  6
  7  9  1  0
  9 10  1  1
  9  2  1  0
M  END
>  <Synonyms>  (346) 
ARABINOSE L-FORM|FEMA NO. 3255|L-ARABINOSE|NSC-1941

>  <Research Codes>  (346) 
FEMA NO. 3255|NSC-1941

>  <Phase>  (346) 
1

>  <Applicants>  (346) 
nan

>  <USAN Stem>  (346) 
nan

>  <USAN Year>  (346) 
nan

>  <USAN Stem Definition>  (346) 
nan

>  <USAN Stem Substem>  (346) 
nan

>  <First Approval>  (346) 
nan

>  <ATC Codes>  (346) 
nan

>  <Level 4 ATC Codes>  (346) 
nan

>  <Level 3 ATC Codes>  (346) 
nan

>  <Level 2 ATC Codes>  (346) 
nan

>  <Level 1 ATC Codes>  (346) 
nan

>  <Indication Class>  (346) 
nan

>  <Patent>  (346) 
nan

>  <Drug Type>  (346) 
7:Natural Product-derived

>  <Passes Rule of Five>  (346) 
True

>  <First In Class>  (346) 
False

>  <Chirality>  (346) 
Single Stereoisomer

>  <Prodrug>  (346) 
False

>  <Oral>  (346) 
False

>  <Parenteral>  (346) 
False

>  <Topical>  (346) 
False

>  <Black Box>  (346) 
False

>  <Availability Type>  (346) 
Unknown

>  <Withdrawn Year>  (346) 
nan

>  <Withdrawn Reason>  (346) 
nan

>  <Withdrawn Country>  (346) 
nan

>  <Withdrawn Class>  (346) 
nan

>  <SMILES>  (346) 
O[C@H]1CO[C@@H](O)[C@H](O)[C@H]1O

>  <InChi Key>  (346) 
SRBFZHDQGSBBOR-QMKXCQHVSA-N

$$$$
CHEMBL4079239
     RDKit          2D

 30 33  0  0  0  0  0  0  0  0999 V2000
    2.1328    3.1443    0.0000 C   0  0  0  0  0  0  0  0  0  0  0  0
    0.7062    2.6807    0.0000 C   0  0  0  0  0  0  0  0  0  0  0  0
    0.3943    1.2135    0.0000 C   0  0  0  0  0  0  0  0  0  0  0  0
    1.2760    0.0000    0.0000 N   0  0  0  0  0  0  0  0  0  0  0  0
    0.3943   -1.2135    0.0000 N   0  0  0  0  0  0  0  0  0  0  0  0
   -1.0323   -0.7500    0.0000 N   0  0  0  0  0  0  0  0  0  0  0  0
   -2.2458   -1.6317    0.0000 C   0  0  0  0  0  0  0  0  0  0  0  0
   -3.6161   -1.0216    0.0000 N   0  0  0  0  0  0  0  0  0  0  0  0
   -4.8297   -1.9033    0.0000 C   0  0  0  0  0  0  0  0  0  0  0  0
   -4.6729   -3.3950    0.0000 C   0  0  0  0  0  0  0  0  0  0  0  0
   -5.8864   -4.2767    0.0000 F   0  0  0  0  0  0  0  0  0  0  0  0
   -3.3025   -4.0051    0.0000 C   0  0  0  0  0  0  0  0  0  0  0  0
   -2.0890   -3.1235    0.0000 N   0  0  0  0  0  0  0  0  0  0  0  0
   -1.0323    0.7500    0.0000 C   0  0  0  0  0  0  0  0  0  0  0  0
   -2.1470    1.7537    0.0000 C   0  0  0  0  0  0  0  0  0  0  0  0
   -1.8351    3.2209    0.0000 C   0  0  0  0  0  0  0  0  0  0  0  0
   -0.4086    3.6844    0.0000 N   0  0  0  0  0  0  0  0  0  0  0  0
   -0.0967    5.1517    0.0000 C   0  0  0  0  0  0  0  0  0  0  0  0
    1.3299    5.6152    0.0000 O   0  0  0  0  0  0  0  0  0  0  0  0
   -1.2114    6.1554    0.0000 C   0  0  0  0  0  0  0  0  0  0  0  0
   -0.8995    7.6226    0.0000 C   0  0  0  0  0  0  0  0  0  0  0  0
   -2.0143    8.6263    0.0000 C   0  0  0  0  0  0  0  0  0  0  0  0
   -3.4408    8.1628    0.0000 C   0  0  0  0  0  0  0  0  0  0  0  0
   -3.7527    6.6955    0.0000 C   0  0  0  0  0  0  0  0  0  0  0  0
   -5.1793    6.2320    0.0000 C   0  0  0  0  0  0  0  0  0  0  0  0
   -6.6059    5.7685    0.0000 F   0  0  0  0  0  0  0  0  0  0  0  0
   -5.6428    7.6586    0.0000 F   0  0  0  0  0  0  0  0  0  0  0  0
   -4.7158    4.8054    0.0000 F   0  0  0  0  0  0  0  0  0  0  0  0
   -2.6380    5.6918    0.0000 C   0  0  0  0  0  0  0  0  0  0  0  0
   -2.9499    4.2246    0.0000 Cl  0  0  0  0  0  0  0  0  0  0  0  0
  2  1  1  6
  2  3  1  0
  3  4  1  0
  4  5  2  0
  5  6  1  0
  6  7  1  0
  7  8  2  0
  8  9  1  0
  9 10  2  0
 10 11  1  0
 10 12  1  0
 12 13  2  0
  6 14  1  0
 14 15  1  0
 15 16  1  0
 16 17  1  0
 17 18  1  0
 18 19  2  0
 18 20  1  0
 20 21  2  0
 21 22  1  0
 22 23  2  0
 23 24  1  0
 24 25  1  0
 25 26  1  0
 25 27  1  0
 25 28  1  0
 24 29  2  0
 29 30  1  0
 17  2  1  0
 29 20  1  0
 14  3  2  0
 13  7  1  0
M  END
>  <Synonyms>  (347) 
JNJ-54175446

>  <Research Codes>  (347) 
nan

>  <Phase>  (347) 
1

>  <Applicants>  (347) 
nan

>  <USAN Stem>  (347) 
nan

>  <USAN Year>  (347) 
nan

>  <USAN Stem Definition>  (347) 
nan

>  <USAN Stem Substem>  (347) 
nan

>  <First Approval>  (347) 
nan

>  <ATC Codes>  (347) 
nan

>  <Level 4 ATC Codes>  (347) 
nan

>  <Level 3 ATC Codes>  (347) 
nan

>  <Level 2 ATC Codes>  (347) 
nan

>  <Level 1 ATC Codes>  (347) 
nan

>  <Indication Class>  (347) 
nan

>  <Patent>  (347) 
nan

>  <Drug Type>  (347) 
1:Synthetic Small Molecule

>  <Passes Rule of Five>  (347) 
True

>  <First In Class>  (347) 
False

>  <Chirality>  (347) 
Single Stereoisomer

>  <Prodrug>  (347) 
False

>  <Oral>  (347) 
False

>  <Parenteral>  (347) 
False

>  <Topical>  (347) 
False

>  <Black Box>  (347) 
False

>  <Availability Type>  (347) 
Unknown

>  <Withdrawn Year>  (347) 
nan

>  <Withdrawn Reason>  (347) 
nan

>  <Withdrawn Country>  (347) 
nan

>  <Withdrawn Class>  (347) 
nan

>  <SMILES>  (347) 
C[C@@H]1c2nnn(-c3ncc(F)cn3)c2CCN1C(=O)c1cccc(C(F)(F)F)c1Cl

>  <InChi Key>  (347) 
CWFVVQFVGMFTBD-SECBINFHSA-N

$$$$
CHEMBL3904602
     RDKit          2D

 35 40  0  0  0  0  0  0  0  0999 V2000
   14.0186    9.2426    0.0000 C   0  0  0  0  0  0  0  0  0  0  0  0
   12.6483    9.8527    0.0000 C   0  0  0  0  0  0  0  0  0  0  0  0
   12.4915   11.3445    0.0000 C   0  0  0  0  0  0  0  0  0  0  0  0
   11.4348    8.9710    0.0000 N   0  0  0  0  0  0  0  0  0  0  0  0
   11.5916    7.4792    0.0000 C   0  0  0  0  0  0  0  0  0  0  0  0
   10.3781    6.5975    0.0000 C   0  0  0  0  0  0  0  0  0  0  0  0
    9.0077    7.2076    0.0000 N   0  0  0  0  0  0  0  0  0  0  0  0
    7.7942    6.3260    0.0000 C   0  0  0  0  0  0  0  0  0  0  0  0
    6.4239    6.9361    0.0000 C   0  0  0  0  0  0  0  0  0  0  0  0
    5.2104    6.0544    0.0000 C   0  0  0  0  0  0  0  0  0  0  0  0
    5.3672    4.5626    0.0000 C   0  0  0  0  0  0  0  0  0  0  0  0
    4.1536    3.6809    0.0000 N   0  0  0  0  0  0  0  0  0  0  0  0
    4.3104    2.1891    0.0000 C   0  0  0  0  0  0  0  0  0  0  0  0
    5.6807    1.5790    0.0000 N   0  0  0  0  0  0  0  0  0  0  0  0
    5.8375    0.0873    0.0000 C   0  0  0  0  0  0  0  0  0  0  0  0
    4.6240   -0.7944    0.0000 C   0  0  0  0  0  0  0  0  0  0  0  0
    4.4672   -2.2862    0.0000 C   0  0  0  0  0  0  0  0  0  0  0  0
    3.0000   -2.5981    0.0000 C   0  0  0  0  0  0  0  0  0  0  0  0
    2.2500   -1.2990    0.0000 N   0  0  0  0  0  0  0  0  0  0  0  0
    3.2537   -0.1843    0.0000 C   0  0  0  0  0  0  0  0  0  0  0  0
    3.0969    1.3075    0.0000 N   0  0  0  0  0  0  0  0  0  0  0  0
    0.7500   -1.2990    0.0000 C   0  0  0  0  0  0  0  0  0  0  0  0
    1.5000    0.0000    0.0000 C   0  0  0  0  0  0  0  0  0  0  0  0
    0.7500    1.2990    0.0000 C   0  0  0  0  0  0  0  0  0  0  0  0
   -0.7500    1.2990    0.0000 C   0  0  0  0  0  0  0  0  0  0  0  0
   -1.5000    0.0000    0.0000 C   0  0  0  0  0  0  0  0  0  0  0  0
   -0.7500   -1.2990    0.0000 C   0  0  0  0  0  0  0  0  0  0  0  0
   -0.0000   -2.5981    0.0000 C   0  0  0  0  0  0  0  0  0  0  0  0
    0.7500   -3.8971    0.0000 N   0  0  0  0  0  0  0  0  0  0  0  0
    2.2500   -3.8971    0.0000 C   0  0  0  0  0  0  0  0  0  0  0  0
    3.0000   -5.1962    0.0000 O   0  0  0  0  0  0  0  0  0  0  0  0
    6.7375    3.9525    0.0000 N   0  0  0  0  0  0  0  0  0  0  0  0
    7.9510    4.8342    0.0000 C   0  0  0  0  0  0  0  0  0  0  0  0
    8.8509    8.6994    0.0000 C   0  0  0  0  0  0  0  0  0  0  0  0
   10.0645    9.5811    0.0000 C   0  0  0  0  0  0  0  0  0  0  0  0
  1  2  1  0
  2  3  1  0
  2  4  1  0
  4  5  1  0
  5  6  1  0
  6  7  1  0
  7  8  1  0
  8  9  2  0
  9 10  1  0
 10 11  2  0
 11 12  1  0
 12 13  2  3
 13 14  1  0
 14 15  1  0
 15 16  2  0
 16 17  1  0
 17 18  2  0
 18 19  1  0
 19 20  1  0
 20 21  2  0
 19 22  1  0
 22 23  1  0
 23 24  1  0
 24 25  1  0
 25 26  1  0
 26 27  1  0
 22 28  1  0
 28 29  1  0
 29 30  1  0
 30 31  2  0
 11 32  1  0
 32 33  2  0
  7 34  1  0
 34 35  1  0
 35  4  1  0
 33  8  1  0
 21 13  1  0
 27 22  1  0
 20 16  1  0
 30 18  1  0
M  END
>  <Synonyms>  (348) 
G1T38|G1T38 FREE BASE|LEROCICLIB

>  <Research Codes>  (348) 
G1T38|G1T38 FREE BASE

>  <Phase>  (348) 
1

>  <Applicants>  (348) 
nan

>  <USAN Stem>  (348) 
'-ciclib'

>  <USAN Year>  (348) 
2018.0

>  <USAN Stem Definition>  (348) 
cyclin dependent kinase inhibitors

>  <USAN Stem Substem>  (348) 
'-ciclib(-ciclib)'

>  <First Approval>  (348) 
nan

>  <ATC Codes>  (348) 
nan

>  <Level 4 ATC Codes>  (348) 
nan

>  <Level 3 ATC Codes>  (348) 
nan

>  <Level 2 ATC Codes>  (348) 
nan

>  <Level 1 ATC Codes>  (348) 
nan

>  <Indication Class>  (348) 
nan

>  <Patent>  (348) 
nan

>  <Drug Type>  (348) 
1:Synthetic Small Molecule

>  <Passes Rule of Five>  (348) 
True

>  <First In Class>  (348) 
False

>  <Chirality>  (348) 
Achiral Molecule

>  <Prodrug>  (348) 
False

>  <Oral>  (348) 
False

>  <Parenteral>  (348) 
False

>  <Topical>  (348) 
False

>  <Black Box>  (348) 
False

>  <Availability Type>  (348) 
Unknown

>  <Withdrawn Year>  (348) 
nan

>  <Withdrawn Reason>  (348) 
nan

>  <Withdrawn Country>  (348) 
nan

>  <Withdrawn Class>  (348) 
nan

>  <SMILES>  (348) 
CC(C)N1CCN(c2ccc(Nc3ncc4cc5n(c4n3)C3(CCCCC3)CNC5=O)nc2)CC1

>  <InChi Key>  (348) 
YPJRHEKCFKOVRT-UHFFFAOYSA-N

$$$$
CHEMBL2106179
     RDKit          2D

 14 15  0  0  0  0  0  0  0  0999 V2000
   -2.4240   -6.1312    0.0000 O   0  0  0  0  0  0  0  0  0  0  0  0
   -1.0537   -5.5211    0.0000 C   0  0  0  0  0  0  0  0  0  0  0  0
    0.2454   -6.2711    0.0000 C   0  0  0  0  0  0  0  0  0  0  0  0
    1.3601   -5.2674    0.0000 C   0  0  0  0  0  0  0  0  0  0  0  0
    0.7500   -3.8971    0.0000 C   0  0  0  0  0  0  0  0  0  0  0  0
    1.5000   -2.5981    0.0000 C   0  0  0  0  0  0  0  0  0  0  0  0
    3.0000   -2.5981    0.0000 O   0  0  0  0  0  0  0  0  0  0  0  0
    0.7500   -1.2990    0.0000 N   0  0  0  0  0  0  0  0  0  0  0  0
    1.5000    0.0000    0.0000 C   0  0  0  0  0  0  0  0  0  0  0  0
    0.7500    1.2990    0.0000 C   0  0  0  0  0  0  0  0  0  0  0  0
   -0.7500    1.2990    0.0000 C   0  0  0  0  0  0  0  0  0  0  0  0
   -1.5000    0.0000    0.0000 C   0  0  0  0  0  0  0  0  0  0  0  0
   -0.7500   -1.2990    0.0000 C   0  0  0  0  0  0  0  0  0  0  0  0
   -0.7418   -4.0539    0.0000 N   0  0  0  0  0  0  0  0  0  0  0  0
  1  2  1  0
  2  3  2  0
  3  4  1  0
  4  5  2  0
  5  6  1  0
  6  7  1  0
  6  8  1  0
  8  9  1  0
  9 10  1  0
 10 11  1  0
 11 12  1  0
 12 13  1  0
  5 14  1  0
 14  2  1  0
 13  8  1  0
M  END
>  <Synonyms>  (349) 
FASORACETAM

>  <Research Codes>  (349) 
nan

>  <Phase>  (349) 
1

>  <Applicants>  (349) 
nan

>  <USAN Stem>  (349) 
'-racetam'

>  <USAN Year>  (349) 
nan

>  <USAN Stem Definition>  (349) 
nootropes (piracetam type)

>  <USAN Stem Substem>  (349) 
'-racetam(-racetam)'

>  <First Approval>  (349) 
nan

>  <ATC Codes>  (349) 
nan

>  <Level 4 ATC Codes>  (349) 
nan

>  <Level 3 ATC Codes>  (349) 
nan

>  <Level 2 ATC Codes>  (349) 
nan

>  <Level 1 ATC Codes>  (349) 
nan

>  <Indication Class>  (349) 
nan

>  <Patent>  (349) 
nan

>  <Drug Type>  (349) 
1:Synthetic Small Molecule

>  <Passes Rule of Five>  (349) 
True

>  <First In Class>  (349) 
False

>  <Chirality>  (349) 
Single Stereoisomer

>  <Prodrug>  (349) 
False

>  <Oral>  (349) 
False

>  <Parenteral>  (349) 
False

>  <Topical>  (349) 
False

>  <Black Box>  (349) 
False

>  <Availability Type>  (349) 
Unknown

>  <Withdrawn Year>  (349) 
nan

>  <Withdrawn Reason>  (349) 
nan

>  <Withdrawn Country>  (349) 
nan

>  <Withdrawn Class>  (349) 
nan

>  <SMILES>  (349) 
O=C1CC[C@H](C(=O)N2CCCCC2)N1

>  <InChi Key>  (349) 
YOVHZHRBNQHJKE-UHFFFAOYSA-N

$$$$
CHEMBL1956285
     RDKit          2D

 27 29  0  0  0  0  0  0  0  0999 V2000
   -2.9499    4.2246    0.0000 C   0  0  0  0  0  0  0  0  0  0  0  0
   -1.8351    3.2209    0.0000 C   0  0  0  0  0  0  0  0  0  0  0  0
   -0.4086    3.6844    0.0000 C   0  0  0  0  0  0  0  0  0  0  0  0
    0.7062    2.6807    0.0000 C   0  0  0  0  0  0  0  0  0  0  0  0
    2.1328    3.1443    0.0000 N   0  0  0  0  0  0  0  0  0  0  0  0
    2.4446    4.6115    0.0000 C   0  0  0  0  0  0  0  0  0  0  0  0
    3.8712    5.0750    0.0000 C   0  0  0  0  0  0  0  0  0  0  0  0
    4.1831    6.5422    0.0000 C   0  0  0  0  0  0  0  0  0  0  0  0
    3.0684    7.5459    0.0000 C   0  0  0  0  0  0  0  0  0  0  0  0
    3.3802    9.0132    0.0000 S   0  0  0  0  0  0  0  0  0  0  0  0
    4.4949    8.0095    0.0000 F   0  0  0  0  0  0  0  0  0  0  0  0
    4.8068    9.4767    0.0000 F   0  0  0  0  0  0  0  0  0  0  0  0
    2.2655   10.0169    0.0000 F   0  0  0  0  0  0  0  0  0  0  0  0
    3.6921   10.4804    0.0000 F   0  0  0  0  0  0  0  0  0  0  0  0
    1.9536    8.5496    0.0000 F   0  0  0  0  0  0  0  0  0  0  0  0
    1.6418    7.0824    0.0000 C   0  0  0  0  0  0  0  0  0  0  0  0
    1.3299    5.6152    0.0000 C   0  0  0  0  0  0  0  0  0  0  0  0
    0.3943    1.2135    0.0000 N   0  0  0  0  0  0  0  0  0  0  0  0
    1.2760    0.0000    0.0000 N   0  0  0  0  0  0  0  0  0  0  0  0
    0.3943   -1.2135    0.0000 C   0  0  0  0  0  0  0  0  0  0  0  0
    0.8578   -2.6401    0.0000 C   0  0  0  0  0  0  0  0  0  0  0  0
    1.3213   -4.0667    0.0000 C   0  0  0  0  0  0  0  0  0  0  0  0
    2.2844   -2.1766    0.0000 F   0  0  0  0  0  0  0  0  0  0  0  0
   -0.5688   -3.1036    0.0000 F   0  0  0  0  0  0  0  0  0  0  0  0
   -1.0323   -0.7500    0.0000 N   0  0  0  0  0  0  0  0  0  0  0  0
   -1.0323    0.7500    0.0000 C   0  0  0  0  0  0  0  0  0  0  0  0
   -2.1470    1.7537    0.0000 N   0  0  0  0  0  0  0  0  0  0  0  0
  1  2  1  0
  2  3  2  0
  3  4  1  0
  4  5  2  3
  5  6  1  0
  6  7  2  0
  7  8  1  0
  8  9  2  0
  9 10  1  0
 10 11  1  0
 10 12  1  0
 10 13  1  0
 10 14  1  0
 10 15  1  0
  9 16  1  0
 16 17  2  0
  4 18  1  0
 18 19  1  0
 19 20  1  0
 20 21  1  0
 21 22  1  0
 21 23  1  0
 21 24  1  0
 20 25  2  0
 25 26  1  0
 26 27  2  0
 27  2  1  0
 17  6  1  0
 26 18  1  0
M  END
>  <Synonyms>  (350) 
DSM-265|DSM265

>  <Research Codes>  (350) 
DSM265

>  <Phase>  (350) 
1

>  <Applicants>  (350) 
nan

>  <USAN Stem>  (350) 
nan

>  <USAN Year>  (350) 
nan

>  <USAN Stem Definition>  (350) 
nan

>  <USAN Stem Substem>  (350) 
nan

>  <First Approval>  (350) 
nan

>  <ATC Codes>  (350) 
nan

>  <Level 4 ATC Codes>  (350) 
nan

>  <Level 3 ATC Codes>  (350) 
nan

>  <Level 2 ATC Codes>  (350) 
nan

>  <Level 1 ATC Codes>  (350) 
nan

>  <Indication Class>  (350) 
nan

>  <Patent>  (350) 
nan

>  <Drug Type>  (350) 
1:Synthetic Small Molecule

>  <Passes Rule of Five>  (350) 
False

>  <First In Class>  (350) 
False

>  <Chirality>  (350) 
Achiral Molecule

>  <Prodrug>  (350) 
False

>  <Oral>  (350) 
False

>  <Parenteral>  (350) 
False

>  <Topical>  (350) 
False

>  <Black Box>  (350) 
False

>  <Availability Type>  (350) 
Unknown

>  <Withdrawn Year>  (350) 
nan

>  <Withdrawn Reason>  (350) 
nan

>  <Withdrawn Country>  (350) 
nan

>  <Withdrawn Class>  (350) 
nan

>  <SMILES>  (350) 
Cc1cc(Nc2ccc(S(F)(F)(F)(F)F)cc2)n2nc(C(C)(F)F)nc2n1

>  <InChi Key>  (350) 
MZZIFDNSYYGDOU-UHFFFAOYSA-N

$$$$
CHEMBL3686884
     RDKit          2D

 43 47  0  0  0  0  0  0  0  0999 V2000
    5.0260    1.2990    0.0000 C   0  0  0  0  0  0  0  0  0  0  0  0
    3.5260    1.2990    0.0000 N   0  0  0  0  0  0  0  0  0  0  0  0
    2.7760    0.0000    0.0000 C   0  0  0  0  0  0  0  0  0  0  0  0
    3.5260   -1.2990    0.0000 O   0  0  0  0  0  0  0  0  0  0  0  0
    1.2760    0.0000    0.0000 N   0  0  0  0  0  0  0  0  0  0  0  0
    0.3943    1.2135    0.0000 C   0  0  0  0  0  0  0  0  0  0  0  0
   -1.0323    0.7500    0.0000 C   0  0  0  0  0  0  0  0  0  0  0  0
   -1.0323   -0.7500    0.0000 C   0  0  0  0  0  0  0  0  0  0  0  0
   -2.1470   -1.7537    0.0000 C   0  0  0  0  0  0  0  0  0  0  0  0
   -1.8351   -3.2209    0.0000 C   0  0  0  0  0  0  0  0  0  0  0  0
   -2.9499   -4.2246    0.0000 O   0  0  0  0  0  0  0  0  0  0  0  0
   -4.3764   -3.7611    0.0000 C   0  0  0  0  0  0  0  0  0  0  0  0
   -4.6883   -2.2939    0.0000 C   0  0  0  0  0  0  0  0  0  0  0  0
   -6.1149   -1.8303    0.0000 C   0  0  0  0  0  0  0  0  0  0  0  0
   -7.2296   -2.8340    0.0000 N   0  0  0  0  0  0  0  0  0  0  0  0
   -6.9177   -4.3013    0.0000 C   0  0  0  0  0  0  0  0  0  0  0  0
   -8.0325   -5.3050    0.0000 N   0  0  0  0  0  0  0  0  0  0  0  0
   -9.4590   -4.8414    0.0000 C   0  0  0  0  0  0  0  0  0  0  0  0
   -9.7709   -3.3742    0.0000 O   0  0  0  0  0  0  0  0  0  0  0  0
  -10.5738   -5.8451    0.0000 C   0  0  0  0  0  0  0  0  0  0  0  0
  -12.0003   -5.3816    0.0000 C   0  0  0  0  0  0  0  0  0  0  0  0
  -13.1151   -6.3853    0.0000 C   0  0  0  0  0  0  0  0  0  0  0  0
  -12.8032   -7.8525    0.0000 C   0  0  0  0  0  0  0  0  0  0  0  0
  -13.9179   -8.8562    0.0000 C   0  0  0  0  0  0  0  0  0  0  0  0
  -15.3445   -8.3927    0.0000 C   0  0  0  0  0  0  0  0  0  0  0  0
  -16.4592   -9.3964    0.0000 C   0  0  0  0  0  0  0  0  0  0  0  0
  -16.1473  -10.8636    0.0000 N   0  0  0  0  0  0  0  0  0  0  0  0
  -17.2621  -11.8673    0.0000 C   0  0  0  0  0  0  0  0  0  0  0  0
  -18.6886  -11.4038    0.0000 C   0  0  0  0  0  0  0  0  0  0  0  0
  -19.8034  -12.4075    0.0000 O   0  0  0  0  0  0  0  0  0  0  0  0
  -14.7208  -11.3271    0.0000 C   0  0  0  0  0  0  0  0  0  0  0  0
  -13.6060  -10.3234    0.0000 C   0  0  0  0  0  0  0  0  0  0  0  0
  -11.3766   -8.3160    0.0000 C   0  0  0  0  0  0  0  0  0  0  0  0
  -10.2619   -7.3123    0.0000 C   0  0  0  0  0  0  0  0  0  0  0  0
   -5.4912   -4.7648    0.0000 C   0  0  0  0  0  0  0  0  0  0  0  0
   -0.4086   -3.6844    0.0000 C   0  0  0  0  0  0  0  0  0  0  0  0
   -0.0967   -5.1517    0.0000 O   0  0  0  0  0  0  0  0  0  0  0  0
    1.3299   -5.6152    0.0000 C   0  0  0  0  0  0  0  0  0  0  0  0
    1.6418   -7.0824    0.0000 C   0  0  0  0  0  0  0  0  0  0  0  0
    3.0684   -7.5459    0.0000 O   0  0  0  0  0  0  0  0  0  0  0  0
    3.3802   -9.0132    0.0000 C   0  0  0  0  0  0  0  0  0  0  0  0
    0.7062   -2.6807    0.0000 C   0  0  0  0  0  0  0  0  0  0  0  0
    0.3943   -1.2135    0.0000 C   0  0  0  0  0  0  0  0  0  0  0  0
  1  2  1  0
  2  3  1  0
  3  4  2  0
  3  5  1  0
  5  6  1  0
  6  7  2  0
  7  8  1  0
  8  9  2  0
  9 10  1  0
 10 11  1  0
 11 12  1  0
 12 13  1  0
 13 14  2  0
 14 15  1  0
 15 16  1  0
 16 17  2  3
 17 18  1  0
 18 19  2  0
 18 20  1  0
 20 21  2  0
 21 22  1  0
 22 23  2  0
 23 24  1  0
 24 25  1  0
 25 26  1  0
 26 27  1  0
 27 28  1  0
 28 29  1  0
 29 30  1  0
 27 31  1  0
 31 32  1  0
 23 33  1  0
 33 34  2  0
 16 35  1  0
 10 36  2  0
 36 37  1  0
 37 38  1  0
 38 39  1  0
 39 40  1  0
 40 41  1  0
 36 42  1  0
 42 43  2  0
 43  5  1  0
 43  8  1  0
 35 12  2  0
 34 20  1  0
 32 24  1  0
M  END
>  <Synonyms>  (351) 
E-7090|E7090

>  <Research Codes>  (351) 
E7090

>  <Phase>  (351) 
1

>  <Applicants>  (351) 
nan

>  <USAN Stem>  (351) 
nan

>  <USAN Year>  (351) 
nan

>  <USAN Stem Definition>  (351) 
nan

>  <USAN Stem Substem>  (351) 
nan

>  <First Approval>  (351) 
nan

>  <ATC Codes>  (351) 
nan

>  <Level 4 ATC Codes>  (351) 
nan

>  <Level 3 ATC Codes>  (351) 
nan

>  <Level 2 ATC Codes>  (351) 
nan

>  <Level 1 ATC Codes>  (351) 
nan

>  <Indication Class>  (351) 
nan

>  <Patent>  (351) 
nan

>  <Drug Type>  (351) 
1:Synthetic Small Molecule

>  <Passes Rule of Five>  (351) 
False

>  <First In Class>  (351) 
False

>  <Chirality>  (351) 
Achiral Molecule

>  <Prodrug>  (351) 
False

>  <Oral>  (351) 
False

>  <Parenteral>  (351) 
False

>  <Topical>  (351) 
False

>  <Black Box>  (351) 
False

>  <Availability Type>  (351) 
Unknown

>  <Withdrawn Year>  (351) 
nan

>  <Withdrawn Reason>  (351) 
nan

>  <Withdrawn Country>  (351) 
nan

>  <Withdrawn Class>  (351) 
nan

>  <SMILES>  (351) 
CNC(=O)n1ccc2cc(Oc3ccnc(NC(=O)c4ccc(C5CCN(CCO)CC5)cc4)c3)c(OCCOC)cc21

>  <InChi Key>  (351) 
IBHOLSBDZMIPPT-UHFFFAOYSA-N

$$$$
CHEMBL1079593
     RDKit          2D

 31 36  0  0  0  0  0  0  0  0999 V2000
   -0.5773   -4.2803    0.0000 O   0  0  0  0  0  0  0  0  0  0  0  0
    0.8899   -3.9684    0.0000 C   0  0  0  0  0  0  0  0  0  0  0  0
    2.0046   -4.9721    0.0000 N   0  0  0  0  0  0  0  0  0  0  0  0
    3.3037   -4.2221    0.0000 C   0  0  0  0  0  0  0  0  0  0  0  0
    4.7302   -4.6856    0.0000 C   0  0  0  0  0  0  0  0  0  0  0  0
    5.8450   -3.6819    0.0000 N   0  0  0  0  0  0  0  0  0  0  0  0
    5.5331   -2.2147    0.0000 C   0  0  0  0  0  0  0  0  0  0  0  0
    6.6478   -1.2110    0.0000 N   0  0  0  0  0  0  0  0  0  0  0  0
    6.4910    0.2808    0.0000 C   0  0  0  0  0  0  0  0  0  0  0  0
    7.8613    0.8909    0.0000 N   0  0  0  0  0  0  0  0  0  0  0  0
    8.8650   -0.2238    0.0000 C   0  0  0  0  0  0  0  0  0  0  0  0
   10.3650   -0.2238    0.0000 C   0  0  0  0  0  0  0  0  0  0  0  0
   11.1150   -1.5229    0.0000 C   0  0  0  0  0  0  0  0  0  0  0  0
   10.3650   -2.8219    0.0000 C   0  0  0  0  0  0  0  0  0  0  0  0
   11.1150   -4.1209    0.0000 F   0  0  0  0  0  0  0  0  0  0  0  0
    8.8650   -2.8219    0.0000 C   0  0  0  0  0  0  0  0  0  0  0  0
    8.1150   -1.5229    0.0000 C   0  0  0  0  0  0  0  0  0  0  0  0
    4.1065   -1.7512    0.0000 N   0  0  0  0  0  0  0  0  0  0  0  0
    2.9918   -2.7549    0.0000 C   0  0  0  0  0  0  0  0  0  0  0  0
    1.5000   -2.5981    0.0000 N   0  0  0  0  0  0  0  0  0  0  0  0
    0.7500   -1.2990    0.0000 C   0  0  0  0  0  0  0  0  0  0  0  0
    1.5000    0.0000    0.0000 C   0  0  0  0  0  0  0  0  0  0  0  0
    0.7500    1.2990    0.0000 C   0  0  0  0  0  0  0  0  0  0  0  0
   -0.7500    1.2990    0.0000 O   0  0  0  0  0  0  0  0  0  0  0  0
   -1.5000    0.0000    0.0000 C   0  0  0  0  0  0  0  0  0  0  0  0
   -3.0000    0.0000    0.0000 C   0  0  0  0  0  0  0  0  0  0  0  0
   -3.7500    1.2990    0.0000 F   0  0  0  0  0  0  0  0  0  0  0  0
   -3.7500   -1.2990    0.0000 C   0  0  0  0  0  0  0  0  0  0  0  0
   -3.0000   -2.5981    0.0000 C   0  0  0  0  0  0  0  0  0  0  0  0
   -1.5000   -2.5981    0.0000 C   0  0  0  0  0  0  0  0  0  0  0  0
   -0.7500   -1.2990    0.0000 C   0  0  0  0  0  0  0  0  0  0  0  0
  1  2  2  0
  2  3  1  0
  3  4  1  0
  4  5  2  0
  5  6  1  0
  6  7  2  0
  7  8  1  0
  8  9  1  0
  9 10  2  0
 10 11  1  0
 11 12  2  0
 12 13  1  0
 13 14  2  0
 14 15  1  0
 14 16  1  0
 16 17  2  0
  7 18  1  0
 18 19  2  0
 19 20  1  0
 21 20  1  1
 21 22  1  0
 22 23  1  0
 23 24  1  0
 24 25  1  0
 25 26  2  0
 26 27  1  0
 26 28  1  0
 28 29  2  0
 29 30  1  0
 30 31  2  0
 20  2  1  0
 31 21  1  0
 19  4  1  0
 31 25  1  0
 17  8  1  0
 17 11  1  0
M  END
>  <Synonyms>  (352) 
VS 5584|VS-5584

>  <Research Codes>  (352) 
VS-5584

>  <Phase>  (352) 
1

>  <Applicants>  (352) 
nan

>  <USAN Stem>  (352) 
nan

>  <USAN Year>  (352) 
nan

>  <USAN Stem Definition>  (352) 
nan

>  <USAN Stem Substem>  (352) 
nan

>  <First Approval>  (352) 
nan

>  <ATC Codes>  (352) 
nan

>  <Level 4 ATC Codes>  (352) 
nan

>  <Level 3 ATC Codes>  (352) 
nan

>  <Level 2 ATC Codes>  (352) 
nan

>  <Level 1 ATC Codes>  (352) 
nan

>  <Indication Class>  (352) 
nan

>  <Patent>  (352) 
nan

>  <Drug Type>  (352) 
1:Synthetic Small Molecule

>  <Passes Rule of Five>  (352) 
True

>  <First In Class>  (352) 
False

>  <Chirality>  (352) 
Single Stereoisomer

>  <Prodrug>  (352) 
False

>  <Oral>  (352) 
False

>  <Parenteral>  (352) 
False

>  <Topical>  (352) 
False

>  <Black Box>  (352) 
False

>  <Availability Type>  (352) 
Unknown

>  <Withdrawn Year>  (352) 
nan

>  <Withdrawn Reason>  (352) 
nan

>  <Withdrawn Country>  (352) 
nan

>  <Withdrawn Class>  (352) 
nan

>  <SMILES>  (352) 
O=c1[nH]c2cnc(-n3cnc4ccc(F)cc43)nc2n1[C@@H]1CCOc2c(F)cccc21

>  <InChi Key>  (352) 
DBXGGXLBTWZXBB-MRXNPFEDSA-N

$$$$
CHEMBL508360
     RDKit          2D

 74 79  0  0  0  0  0  0  0  0999 V2000
   -9.4251   -7.1358    0.0000 C   0  0  0  0  0  0  0  0  0  0  0  0
   -8.6751   -8.4348    0.0000 O   0  0  0  0  0  0  0  0  0  0  0  0
   -7.1751   -8.4348    0.0000 C   0  0  0  0  0  0  0  0  0  0  0  0
   -7.0183   -9.9266    0.0000 C   0  0  0  0  0  0  0  0  0  0  0  0
   -6.5548  -11.3532    0.0000 C   0  0  0  0  0  0  0  0  0  0  0  0
   -7.9251  -11.9633    0.0000 C   0  0  0  0  0  0  0  0  0  0  0  0
   -5.8048  -12.6522    0.0000 C   0  0  0  0  0  0  0  0  0  0  0  0
   -4.8011  -13.7669    0.0000 C   0  0  0  0  0  0  0  0  0  0  0  0
   -3.5875  -14.6486    0.0000 C   0  0  0  0  0  0  0  0  0  0  0  0
   -2.2172  -15.2587    0.0000 C   0  0  0  0  0  0  0  0  0  0  0  0
   -0.7500  -15.5706    0.0000 C   0  0  0  0  0  0  0  0  0  0  0  0
    0.7500  -15.5706    0.0000 C   0  0  0  0  0  0  0  0  0  0  0  0
    0.9068  -17.0624    0.0000 C   0  0  0  0  0  0  0  0  0  0  0  0
    2.2172  -15.2587    0.0000 C   0  0  0  0  0  0  0  0  0  0  0  0
    3.5875  -14.6486    0.0000 C   0  0  0  0  0  0  0  0  0  0  0  0
    4.3375  -15.9477    0.0000 C   0  0  0  0  0  0  0  0  0  0  0  0
    4.8011  -13.7669    0.0000 C   0  0  0  0  0  0  0  0  0  0  0  0
    5.8048  -14.8817    0.0000 O   0  0  0  0  0  0  0  0  0  0  0  0
    5.8048  -12.6522    0.0000 C   0  0  0  0  0  0  0  0  0  0  0  0
    7.0183  -13.5339    0.0000 O   0  0  0  0  0  0  0  0  0  0  0  0
    6.8615  -15.0257    0.0000 C   0  0  0  0  0  0  0  0  0  0  0  0
    6.5548  -11.3532    0.0000 C   0  0  0  0  0  0  0  0  0  0  0  0
    7.9251  -11.9633    0.0000 O   0  0  0  0  0  0  0  0  0  0  0  0
    7.0183   -9.9266    0.0000 C   0  0  0  0  0  0  0  0  0  0  0  0
    8.4855  -10.2385    0.0000 C   0  0  0  0  0  0  0  0  0  0  0  0
    7.1751   -8.4348    0.0000 C   0  0  0  0  0  0  0  0  0  0  0  0
    7.0183   -6.9430    0.0000 C   0  0  0  0  0  0  0  0  0  0  0  0
    8.4855   -6.6312    0.0000 C   0  0  0  0  0  0  0  0  0  0  0  0
    6.5548   -5.5164    0.0000 C   0  0  0  0  0  0  0  0  0  0  0  0
    7.9251   -4.9063    0.0000 O   0  0  0  0  0  0  0  0  0  0  0  0
    5.8048   -4.2174    0.0000 C   0  0  0  0  0  0  0  0  0  0  0  0
    4.8011   -3.1027    0.0000 C   0  0  0  0  0  0  0  0  0  0  0  0
    5.8048   -1.9880    0.0000 C   0  0  0  0  0  0  0  0  0  0  0  0
    7.2720   -2.2998    0.0000 C   0  0  0  0  0  0  0  0  0  0  0  0
    5.3412   -0.5614    0.0000 C   0  0  0  0  0  0  0  0  0  0  0  0
    6.3449    0.5533    0.0000 C   0  0  0  0  0  0  0  0  0  0  0  0
    7.8122    0.2415    0.0000 C   0  0  0  0  0  0  0  0  0  0  0  0
    8.8158    1.3562    0.0000 C   0  0  0  0  0  0  0  0  0  0  0  0
    8.3523    2.7828    0.0000 C   0  0  0  0  0  0  0  0  0  0  0  0
    9.3560    3.8975    0.0000 O   0  0  0  0  0  0  0  0  0  0  0  0
    6.8851    3.0946    0.0000 C   0  0  0  0  0  0  0  0  0  0  0  0
    6.4216    4.5212    0.0000 O   0  0  0  0  0  0  0  0  0  0  0  0
    4.9544    4.8331    0.0000 C   0  0  0  0  0  0  0  0  0  0  0  0
    5.8814    1.9799    0.0000 C   0  0  0  0  0  0  0  0  0  0  0  0
    3.5875   -2.2210    0.0000 O   0  0  0  0  0  0  0  0  0  0  0  0
    2.2172   -1.6109    0.0000 C   0  0  0  0  0  0  0  0  0  0  0  0
    2.6807   -0.1843    0.0000 O   0  0  0  0  0  0  0  0  0  0  0  0
    0.7500   -1.2990    0.0000 C   0  0  0  0  0  0  0  0  0  0  0  0
    1.5000    0.0000    0.0000 C   0  0  0  0  0  0  0  0  0  0  0  0
    0.7500    1.2990    0.0000 C   0  0  0  0  0  0  0  0  0  0  0  0
   -0.7500    1.2990    0.0000 C   0  0  0  0  0  0  0  0  0  0  0  0
   -1.5000    0.0000    0.0000 C   0  0  0  0  0  0  0  0  0  0  0  0
   -0.7500   -1.2990    0.0000 N   0  0  0  0  0  0  0  0  0  0  0  0
   -2.2172   -1.6109    0.0000 C   0  0  0  0  0  0  0  0  0  0  0  0
   -2.6807   -0.1843    0.0000 O   0  0  0  0  0  0  0  0  0  0  0  0
   -3.5875   -2.2210    0.0000 C   0  0  0  0  0  0  0  0  0  0  0  0
   -4.3375   -0.9220    0.0000 O   0  0  0  0  0  0  0  0  0  0  0  0
   -4.8011   -3.1027    0.0000 C   0  0  0  0  0  0  0  0  0  0  0  0
   -5.2169   -2.3206    0.0000 O   0  0  0  0  0  0  0  0  0  0  0  0
   -5.8048   -4.2174    0.0000 O   0  0  0  0  0  0  0  0  0  0  0  0
   -6.5548   -5.5164    0.0000 C   0  0  0  0  0  0  0  0  0  0  0  0
   -7.5417   -4.3229    0.0000 C   0  0  0  0  0  0  0  0  0  0  0  0
   -7.3849   -2.8311    0.0000 C   0  0  0  0  0  0  0  0  0  0  0  0
   -6.0146   -2.2210    0.0000 C   0  0  0  0  0  0  0  0  0  0  0  0
   -5.8578   -0.7292    0.0000 C   0  0  0  0  0  0  0  0  0  0  0  0
   -7.0183   -6.9430    0.0000 C   0  0  0  0  0  0  0  0  0  0  0  0
   -1.8446  -15.0832    0.0000 N   0  0  0  0  0  0  0  0  0  0  0  0
   -1.2135  -13.3899    0.0000 C   0  0  0  0  0  0  0  0  0  0  0  0
    0.2865  -13.3899    0.0000 C   0  0  0  0  0  0  0  0  0  0  0  0
    1.0365  -12.0908    0.0000 C   0  0  0  0  0  0  0  0  0  0  0  0
    0.2865  -10.7918    0.0000 C   0  0  0  0  0  0  0  0  0  0  0  0
   -1.2135  -10.7918    0.0000 C   0  0  0  0  0  0  0  0  0  0  0  0
   -1.9635  -12.0908    0.0000 C   0  0  0  0  0  0  0  0  0  0  0  0
   -3.7065  -14.2543    0.0000 O   0  0  0  0  0  0  0  0  0  0  0  0
  1  2  1  0
  3  2  1  1
  3  4  1  0
  4  5  1  0
  5  6  1  0
  5  7  2  0
  8  7  1  6
  8  9  1  0
  9 10  1  0
 11 10  1  6
 11 12  1  0
 12 13  1  6
 12 14  1  0
 14 15  1  0
 15 16  1  0
 15 17  1  0
 17 18  2  0
 17 19  1  0
 19 20  1  0
 20 21  1  0
 19 22  1  0
 22 23  1  1
 22 24  1  0
 24 25  1  0
 24 26  1  0
 26 27  2  0
 27 28  1  0
 27 29  1  0
 29 30  2  0
 29 31  1  0
 32 31  1  6
 32 33  1  0
 33 34  1  1
 33 35  1  0
 36 35  1  1
 36 37  1  0
 37 38  1  0
 38 39  1  0
 39 40  1  6
 39 41  1  0
 41 42  1  1
 42 43  1  0
 41 44  1  0
 32 45  1  0
 45 46  1  0
 46 47  2  0
 46 48  1  0
 48 49  1  0
 49 50  1  0
 50 51  1  0
 51 52  1  0
 52 53  1  0
 53 54  1  0
 54 55  2  0
 54 56  1  0
 56 57  2  0
 56 58  1  0
 58 59  1  1
 58 60  1  0
 60 61  1  0
 61 62  1  6
 62 63  1  0
 63 64  1  0
 64 65  1  1
 61 66  1  0
 11 67  1  0
 67 68  1  0
 68 69  2  0
 69 70  1  0
 70 71  2  0
 71 72  1  0
 72 73  2  0
 67 74  1  0
 66  3  1  0
 73 68  1  0
 74  8  1  0
 44 36  1  0
 53 48  1  0
 64 58  1  0
M  END
>  <Synonyms>  (353) 
ILS 920|ILS-920|WAY-265920

>  <Research Codes>  (353) 
ILS 920|WAY-265920

>  <Phase>  (353) 
1

>  <Applicants>  (353) 
nan

>  <USAN Stem>  (353) 
nan

>  <USAN Year>  (353) 
nan

>  <USAN Stem Definition>  (353) 
nan

>  <USAN Stem Substem>  (353) 
nan

>  <First Approval>  (353) 
nan

>  <ATC Codes>  (353) 
nan

>  <Level 4 ATC Codes>  (353) 
nan

>  <Level 3 ATC Codes>  (353) 
nan

>  <Level 2 ATC Codes>  (353) 
nan

>  <Level 1 ATC Codes>  (353) 
nan

>  <Indication Class>  (353) 
nan

>  <Patent>  (353) 
nan

>  <Drug Type>  (353) 
7:Natural Product-derived

>  <Passes Rule of Five>  (353) 
False

>  <First In Class>  (353) 
False

>  <Chirality>  (353) 
Single Stereoisomer

>  <Prodrug>  (353) 
False

>  <Oral>  (353) 
False

>  <Parenteral>  (353) 
False

>  <Topical>  (353) 
False

>  <Black Box>  (353) 
False

>  <Availability Type>  (353) 
Unknown

>  <Withdrawn Year>  (353) 
nan

>  <Withdrawn Reason>  (353) 
nan

>  <Withdrawn Country>  (353) 
nan

>  <Withdrawn Class>  (353) 
nan

>  <SMILES>  (353) 
CO[C@@H]1C/C(C)=C\[C@H]2CC[C@@H]([C@@H](C)C[C@@H](C)C(=O)[C@H](OC)[C@H](O)/C(C)=C/[C@@H](C)C(=O)C[C@@H]([C@H](C)C[C@@H]3CC[C@@H](O)[C@H](OC)C3)OC(=O)[C@@H]3CCCCN3C(=O)C(=O)[C@]3(O)O[C@@H](CC[C@H]3C)C1)N(c1ccccc1)O2

>  <InChi Key>  (353) 
YVNCOLCUFYCMNN-YUFCEJKVSA-N

$$$$
CHEMBL517341
     RDKit          2D

 33 38  0  0  0  0  0  0  0  0999 V2000
   -1.7830   -5.1814    0.0000 C   0  0  0  0  0  0  0  0  0  0  0  0
   -1.3194   -3.7548    0.0000 C   0  0  0  0  0  0  0  0  0  0  0  0
    0.1478   -3.4430    0.0000 O   0  0  0  0  0  0  0  0  0  0  0  0
   -2.3231   -2.6401    0.0000 O   0  0  0  0  0  0  0  0  0  0  0  0
   -1.8596   -1.2135    0.0000 C   0  0  0  0  0  0  0  0  0  0  0  0
   -2.7413    0.0000    0.0000 C   0  0  0  0  0  0  0  0  0  0  0  0
   -4.2413    0.0000    0.0000 C   0  0  0  0  0  0  0  0  0  0  0  0
   -4.9913    1.2990    0.0000 C   0  0  0  0  0  0  0  0  0  0  0  0
   -6.4913    1.2990    0.0000 C   0  0  0  0  0  0  0  0  0  0  0  0
   -7.2413    0.0000    0.0000 C   0  0  0  0  0  0  0  0  0  0  0  0
   -8.7413    0.0000    0.0000 O   0  0  0  0  0  0  0  0  0  0  0  0
   -6.4913   -1.2990    0.0000 O   0  0  0  0  0  0  0  0  0  0  0  0
   -4.9913   -1.2990    0.0000 C   0  0  0  0  0  0  0  0  0  0  0  0
   -1.8596    1.2135    0.0000 C   0  0  0  0  0  0  0  0  0  0  0  0
   -3.3268    1.5254    0.0000 C   0  0  0  0  0  0  0  0  0  0  0  0
   -2.1715    2.6807    0.0000 C   0  0  0  0  0  0  0  0  0  0  0  0
   -1.0567    3.6844    0.0000 C   0  0  0  0  0  0  0  0  0  0  0  0
    0.3698    3.2209    0.0000 C   0  0  0  0  0  0  0  0  0  0  0  0
    0.6817    1.7537    0.0000 C   0  0  0  0  0  0  0  0  0  0  0  0
    2.1083    1.2902    0.0000 C   0  0  0  0  0  0  0  0  0  0  0  0
    3.2230    2.2939    0.0000 C   0  0  0  0  0  0  0  0  0  0  0  0
    2.9111    3.7611    0.0000 C   0  0  0  0  0  0  0  0  0  0  0  0
    4.3377    3.2976    0.0000 O   0  0  0  0  0  0  0  0  0  0  0  0
    4.0259    4.7648    0.0000 C   0  0  0  0  0  0  0  0  0  0  0  0
    3.7140    6.2320    0.0000 C   0  0  0  0  0  0  0  0  0  0  0  0
    4.8287    7.2357    0.0000 O   0  0  0  0  0  0  0  0  0  0  0  0
    2.2874    6.6955    0.0000 C   0  0  0  0  0  0  0  0  0  0  0  0
    1.1727    5.6918    0.0000 C   0  0  0  0  0  0  0  0  0  0  0  0
    1.4846    4.2246    0.0000 C   0  0  0  0  0  0  0  0  0  0  0  0
    0.0580    4.6881    0.0000 C   0  0  0  0  0  0  0  0  0  0  0  0
   -0.4330    0.7500    0.0000 C   0  0  0  0  0  0  0  0  0  0  0  0
    0.8660    0.0000    0.0000 O   0  0  0  0  0  0  0  0  0  0  0  0
   -0.4330   -0.7500    0.0000 C   0  0  0  0  0  0  0  0  0  0  0  0
  1  2  1  0
  2  3  2  0
  2  4  1  0
  5  4  1  6
  5  6  1  0
  6  7  1  6
  7  8  1  0
  8  9  2  0
  9 10  1  0
 10 11  2  0
 10 12  1  0
 12 13  1  0
  6 14  1  0
 14 15  1  6
 14 16  1  0
 16 17  1  0
 18 17  1  6
 18 19  1  0
 19 20  1  1
 20 21  1  0
 21 22  1  0
 22 23  1  6
 22 24  1  0
 24 25  1  0
 25 26  1  6
 25 27  1  0
 27 28  1  0
 28 29  1  0
 29 30  1  6
 19 31  1  0
 31 32  1  6
 33 32  1  6
 33  5  1  0
 13  7  2  0
 31 14  1  0
 29 18  1  0
 33 31  1  0
 29 22  1  0
M  END
>  <Synonyms>  (354) 
CINOBUFOTALIN|NSC-90326

>  <Research Codes>  (354) 
NSC-90326

>  <Phase>  (354) 
1

>  <Applicants>  (354) 
nan

>  <USAN Stem>  (354) 
nan

>  <USAN Year>  (354) 
nan

>  <USAN Stem Definition>  (354) 
nan

>  <USAN Stem Substem>  (354) 
nan

>  <First Approval>  (354) 
nan

>  <ATC Codes>  (354) 
nan

>  <Level 4 ATC Codes>  (354) 
nan

>  <Level 3 ATC Codes>  (354) 
nan

>  <Level 2 ATC Codes>  (354) 
nan

>  <Level 1 ATC Codes>  (354) 
nan

>  <Indication Class>  (354) 
nan

>  <Patent>  (354) 
nan

>  <Drug Type>  (354) 
7:Natural Product-derived

>  <Passes Rule of Five>  (354) 
True

>  <First In Class>  (354) 
False

>  <Chirality>  (354) 
Single Stereoisomer

>  <Prodrug>  (354) 
False

>  <Oral>  (354) 
False

>  <Parenteral>  (354) 
False

>  <Topical>  (354) 
False

>  <Black Box>  (354) 
False

>  <Availability Type>  (354) 
Unknown

>  <Withdrawn Year>  (354) 
nan

>  <Withdrawn Reason>  (354) 
nan

>  <Withdrawn Country>  (354) 
nan

>  <Withdrawn Class>  (354) 
nan

>  <SMILES>  (354) 
CC(=O)O[C@@H]1[C@H](c2ccc(=O)oc2)[C@@]2(C)CC[C@H]3[C@@H](CC[C@]4(O)C[C@@H](O)CC[C@]34C)[C@]23O[C@H]13

>  <InChi Key>  (354) 
KBKUJJFDSHBPPA-ZNCGZLKOSA-N

$$$$
CHEMBL271068
     RDKit          2D

 29 32  0  0  0  0  0  0  0  0999 V2000
   -3.8266  -10.3712    0.0000 C   0  0  0  0  0  0  0  0  0  0  0  0
   -4.4367   -9.0009    0.0000 C   0  0  0  0  0  0  0  0  0  0  0  0
   -3.6867   -7.7018    0.0000 C   0  0  0  0  0  0  0  0  0  0  0  0
   -4.6904   -6.5871    0.0000 C   0  0  0  0  0  0  0  0  0  0  0  0
   -4.3786   -5.1199    0.0000 N   0  0  0  0  0  0  0  0  0  0  0  0
   -2.9520   -4.6564    0.0000 C   0  0  0  0  0  0  0  0  0  0  0  0
   -1.8373   -5.6601    0.0000 O   0  0  0  0  0  0  0  0  0  0  0  0
   -2.6401   -3.1891    0.0000 C   0  0  0  0  0  0  0  0  0  0  0  0
   -3.7548   -2.1855    0.0000 O   0  0  0  0  0  0  0  0  0  0  0  0
   -1.2135   -2.7256    0.0000 C   0  0  0  0  0  0  0  0  0  0  0  0
   -0.0000   -3.6073    0.0000 C   0  0  0  0  0  0  0  0  0  0  0  0
    1.2135   -2.7256    0.0000 C   0  0  0  0  0  0  0  0  0  0  0  0
    2.6401   -3.1891    0.0000 C   0  0  0  0  0  0  0  0  0  0  0  0
    2.9520   -4.6564    0.0000 C   0  0  0  0  0  0  0  0  0  0  0  0
    1.8373   -5.6601    0.0000 C   0  0  0  0  0  0  0  0  0  0  0  0
    2.1491   -7.1273    0.0000 C   0  0  0  0  0  0  0  0  0  0  0  0
    3.5757   -7.5908    0.0000 C   0  0  0  0  0  0  0  0  0  0  0  0
    3.8876   -9.0580    0.0000 C   0  0  0  0  0  0  0  0  0  0  0  0
    4.1994  -10.5253    0.0000 N   0  0  0  0  0  0  0  0  0  0  0  0
    4.6904   -6.5871    0.0000 C   0  0  0  0  0  0  0  0  0  0  0  0
    4.3786   -5.1199    0.0000 C   0  0  0  0  0  0  0  0  0  0  0  0
    0.7500   -1.2990    0.0000 N   0  0  0  0  0  0  0  0  0  0  0  0
    1.5000    0.0000    0.0000 C   0  0  0  0  0  0  0  0  0  0  0  0
    0.7500    1.2990    0.0000 C   0  0  0  0  0  0  0  0  0  0  0  0
   -0.7500    1.2990    0.0000 C   0  0  0  0  0  0  0  0  0  0  0  0
   -1.5000    0.0000    0.0000 C   0  0  0  0  0  0  0  0  0  0  0  0
   -0.7500   -1.2990    0.0000 C   0  0  0  0  0  0  0  0  0  0  0  0
   -6.0607   -7.1972    0.0000 S   0  0  0  0  0  0  0  0  0  0  0  0
   -5.9040   -8.6890    0.0000 N   0  0  0  0  0  0  0  0  0  0  0  0
  1  2  1  0
  2  3  2  0
  3  4  1  0
  4  5  2  3
  5  6  1  0
  6  7  2  0
  6  8  1  0
  8  9  2  0
  8 10  1  0
 10 11  1  0
 11 12  2  0
 12 13  1  0
 13 14  1  0
 14 15  2  0
 15 16  1  0
 16 17  2  0
 17 18  1  0
 18 19  3  0
 17 20  1  0
 20 21  2  0
 12 22  1  0
 22 23  1  0
 23 24  2  0
 24 25  1  0
 25 26  2  0
 26 27  1  0
  4 28  1  0
 28 29  1  0
 29  2  1  0
 27 10  2  0
 21 14  1  0
 27 22  1  0
M  END
>  <Synonyms>  (355) 
ROSABULIN|STA-5312

>  <Research Codes>  (355) 
STA-5312

>  <Phase>  (355) 
1

>  <Applicants>  (355) 
nan

>  <USAN Stem>  (355) 
'-bulin'

>  <USAN Year>  (355) 
2005.0

>  <USAN Stem Definition>  (355) 
antineoplastics (mitotic inhibitors,tubulin binders

>  <USAN Stem Substem>  (355) 
'-bulin(-bulin)'

>  <First Approval>  (355) 
nan

>  <ATC Codes>  (355) 
nan

>  <Level 4 ATC Codes>  (355) 
nan

>  <Level 3 ATC Codes>  (355) 
nan

>  <Level 2 ATC Codes>  (355) 
nan

>  <Level 1 ATC Codes>  (355) 
nan

>  <Indication Class>  (355) 
nan

>  <Patent>  (355) 
nan

>  <Drug Type>  (355) 
1:Synthetic Small Molecule

>  <Passes Rule of Five>  (355) 
True

>  <First In Class>  (355) 
False

>  <Chirality>  (355) 
Achiral Molecule

>  <Prodrug>  (355) 
False

>  <Oral>  (355) 
False

>  <Parenteral>  (355) 
False

>  <Topical>  (355) 
False

>  <Black Box>  (355) 
False

>  <Availability Type>  (355) 
Unknown

>  <Withdrawn Year>  (355) 
nan

>  <Withdrawn Reason>  (355) 
nan

>  <Withdrawn Country>  (355) 
nan

>  <Withdrawn Class>  (355) 
nan

>  <SMILES>  (355) 
Cc1cc(NC(=O)C(=O)c2cc(Cc3ccc(C#N)cc3)n3ccccc23)sn1

>  <InChi Key>  (355) 
UVWDBJLJMLPKEO-UHFFFAOYSA-N

$$$$
CHEMBL1672627
     RDKit          2D

 25 28  0  0  0  0  0  0  0  0999 V2000
   -0.7500   -3.8971    0.0000 O   0  0  0  0  0  0  0  0  0  0  0  0
    0.7500   -3.8971    0.0000 C   0  0  0  0  0  0  0  0  0  0  0  0
    1.5000   -2.5981    0.0000 N   0  0  0  0  0  0  0  0  0  0  0  0
    0.7500   -1.2990    0.0000 C   0  0  0  0  0  0  0  0  0  0  0  0
    1.5000    0.0000    0.0000 C   0  0  0  0  0  0  0  0  0  0  0  0
    0.7500    1.2990    0.0000 N   0  0  0  0  0  0  0  0  0  0  0  0
   -0.7500    1.2990    0.0000 C   0  0  0  0  0  0  0  0  0  0  0  0
   -1.5000    2.5981    0.0000 C   0  0  0  0  0  0  0  0  0  0  0  0
   -3.0000    2.5981    0.0000 C   0  0  0  0  0  0  0  0  0  0  0  0
   -3.7500    3.8971    0.0000 C   0  0  0  0  0  0  0  0  0  0  0  0
   -3.0000    5.1962    0.0000 N   0  0  0  0  0  0  0  0  0  0  0  0
   -1.5000    5.1962    0.0000 C   0  0  0  0  0  0  0  0  0  0  0  0
   -0.7500    3.8971    0.0000 C   0  0  0  0  0  0  0  0  0  0  0  0
    0.7500    3.8971    0.0000 F   0  0  0  0  0  0  0  0  0  0  0  0
   -1.5000    0.0000    0.0000 C   0  0  0  0  0  0  0  0  0  0  0  0
   -3.0000    0.0000    0.0000 C   0  0  0  0  0  0  0  0  0  0  0  0
   -3.7500   -1.2990    0.0000 C   0  0  0  0  0  0  0  0  0  0  0  0
   -5.2500   -1.2990    0.0000 C   0  0  0  0  0  0  0  0  0  0  0  0
   -6.0000    0.0000    0.0000 C   0  0  0  0  0  0  0  0  0  0  0  0
   -5.2500    1.2990    0.0000 N   0  0  0  0  0  0  0  0  0  0  0  0
   -3.7500    1.2990    0.0000 C   0  0  0  0  0  0  0  0  0  0  0  0
   -0.7500   -1.2990    0.0000 N   0  0  0  0  0  0  0  0  0  0  0  0
    1.5000   -5.1962    0.0000 C   0  0  0  0  0  0  0  0  0  0  0  0
    2.7990   -5.9462    0.0000 C   0  0  0  0  0  0  0  0  0  0  0  0
    1.5000   -6.6962    0.0000 C   0  0  0  0  0  0  0  0  0  0  0  0
  1  2  2  0
  2  3  1  0
  3  4  2  3
  4  5  1  0
  5  6  2  0
  6  7  1  0
  7  8  1  0
  8  9  2  0
  9 10  1  0
 10 11  2  0
 11 12  1  0
 12 13  2  0
 13 14  1  0
  7 15  2  0
 15 16  1  0
 16 17  2  0
 17 18  1  0
 18 19  2  0
 19 20  1  0
 20 21  2  0
 15 22  1  0
  2 23  1  0
 23 24  1  0
 24 25  1  0
 22  4  1  0
 25 23  1  0
 13  8  1  0
 21 16  1  0
M  END
>  <Synonyms>  (356) 
LAS101057

>  <Research Codes>  (356) 
nan

>  <Phase>  (356) 
1

>  <Applicants>  (356) 
nan

>  <USAN Stem>  (356) 
nan

>  <USAN Year>  (356) 
nan

>  <USAN Stem Definition>  (356) 
nan

>  <USAN Stem Substem>  (356) 
nan

>  <First Approval>  (356) 
nan

>  <ATC Codes>  (356) 
nan

>  <Level 4 ATC Codes>  (356) 
nan

>  <Level 3 ATC Codes>  (356) 
nan

>  <Level 2 ATC Codes>  (356) 
nan

>  <Level 1 ATC Codes>  (356) 
nan

>  <Indication Class>  (356) 
nan

>  <Patent>  (356) 
nan

>  <Drug Type>  (356) 
1:Synthetic Small Molecule

>  <Passes Rule of Five>  (356) 
True

>  <First In Class>  (356) 
False

>  <Chirality>  (356) 
Achiral Molecule

>  <Prodrug>  (356) 
False

>  <Oral>  (356) 
False

>  <Parenteral>  (356) 
False

>  <Topical>  (356) 
False

>  <Black Box>  (356) 
False

>  <Availability Type>  (356) 
Unknown

>  <Withdrawn Year>  (356) 
nan

>  <Withdrawn Reason>  (356) 
nan

>  <Withdrawn Country>  (356) 
nan

>  <Withdrawn Class>  (356) 
nan

>  <SMILES>  (356) 
O=C(Nc1cnc(-c2ccncc2F)c(-c2cccnc2)n1)C1CC1

>  <InChi Key>  (356) 
XUYURJQIMYCWBB-UHFFFAOYSA-N

$$$$
CHEMBL410414
     RDKit          2D

 50 55  0  0  0  0  0  0  0  0999 V2000
   -3.8971  -10.3573    0.0000 C   0  0  0  0  0  0  0  0  0  0  0  0
   -2.5981   -9.6073    0.0000 N   0  0  0  0  0  0  0  0  0  0  0  0
   -1.2990  -10.3573    0.0000 C   0  0  0  0  0  0  0  0  0  0  0  0
   -1.2990  -11.8573    0.0000 C   0  0  0  0  0  0  0  0  0  0  0  0
   -2.5981  -12.6073    0.0000 C   0  0  0  0  0  0  0  0  0  0  0  0
   -2.5981  -14.1073    0.0000 C   0  0  0  0  0  0  0  0  0  0  0  0
   -1.2990  -14.8573    0.0000 C   0  0  0  0  0  0  0  0  0  0  0  0
    0.0000  -14.1073    0.0000 C   0  0  0  0  0  0  0  0  0  0  0  0
    0.0000  -12.6073    0.0000 C   0  0  0  0  0  0  0  0  0  0  0  0
   -2.5981   -8.1073    0.0000 C   0  0  0  0  0  0  0  0  0  0  0  0
   -3.8971   -7.3573    0.0000 O   0  0  0  0  0  0  0  0  0  0  0  0
   -1.2990   -7.3573    0.0000 C   0  0  0  0  0  0  0  0  0  0  0  0
   -1.2990   -5.8573    0.0000 N   0  0  0  0  0  0  0  0  0  0  0  0
    0.0000   -5.1073    0.0000 C   0  0  0  0  0  0  0  0  0  0  0  0
    1.2990   -5.8573    0.0000 O   0  0  0  0  0  0  0  0  0  0  0  0
    0.0000   -3.6073    0.0000 C   0  0  0  0  0  0  0  0  0  0  0  0
    1.2135   -2.7256    0.0000 C   0  0  0  0  0  0  0  0  0  0  0  0
    0.7500   -1.2990    0.0000 C   0  0  0  0  0  0  0  0  0  0  0  0
    1.5000    0.0000    0.0000 C   0  0  0  0  0  0  0  0  0  0  0  0
    0.7500    1.2990    0.0000 C   0  0  0  0  0  0  0  0  0  0  0  0
    1.5000    2.5981    0.0000 N   0  0  0  0  0  0  0  0  0  0  0  0
    3.0000    2.5981    0.0000 C   0  0  0  0  0  0  0  0  0  0  0  0
    3.7500    1.2990    0.0000 O   0  0  0  0  0  0  0  0  0  0  0  0
    3.7500    3.8971    0.0000 C   0  0  0  0  0  0  0  0  0  0  0  0
    5.2500    3.8971    0.0000 C   0  0  0  0  0  0  0  0  0  0  0  0
    6.0000    5.1962    0.0000 C   0  0  0  0  0  0  0  0  0  0  0  0
    5.2500    6.4952    0.0000 C   0  0  0  0  0  0  0  0  0  0  0  0
    3.7500    6.4952    0.0000 C   0  0  0  0  0  0  0  0  0  0  0  0
    3.0000    5.1962    0.0000 C   0  0  0  0  0  0  0  0  0  0  0  0
    1.5000    5.1962    0.0000 C   0  0  0  0  0  0  0  0  0  0  0  0
    0.7500    6.4952    0.0000 C   0  0  0  0  0  0  0  0  0  0  0  0
   -0.7500    6.4952    0.0000 C   0  0  0  0  0  0  0  0  0  0  0  0
   -1.5000    5.1962    0.0000 C   0  0  0  0  0  0  0  0  0  0  0  0
   -3.0000    5.1962    0.0000 C   0  0  0  0  0  0  0  0  0  0  0  0
   -4.5000    5.1962    0.0000 F   0  0  0  0  0  0  0  0  0  0  0  0
   -3.0000    6.6962    0.0000 F   0  0  0  0  0  0  0  0  0  0  0  0
   -3.0000    3.6962    0.0000 F   0  0  0  0  0  0  0  0  0  0  0  0
   -0.7500    3.8971    0.0000 C   0  0  0  0  0  0  0  0  0  0  0  0
    0.7500    3.8971    0.0000 C   0  0  0  0  0  0  0  0  0  0  0  0
   -0.7500    1.2990    0.0000 C   0  0  0  0  0  0  0  0  0  0  0  0
   -1.5000    0.0000    0.0000 C   0  0  0  0  0  0  0  0  0  0  0  0
   -0.7500   -1.2990    0.0000 C   0  0  0  0  0  0  0  0  0  0  0  0
   -1.2135   -2.7256    0.0000 N   0  0  0  0  0  0  0  0  0  0  0  0
   -2.6401   -3.1891    0.0000 C   0  0  0  0  0  0  0  0  0  0  0  0
    0.0000   -8.1073    0.0000 C   0  0  0  0  0  0  0  0  0  0  0  0
    0.0000   -9.6073    0.0000 C   0  0  0  0  0  0  0  0  0  0  0  0
    1.2990  -10.3573    0.0000 C   0  0  0  0  0  0  0  0  0  0  0  0
    2.5981   -9.6073    0.0000 C   0  0  0  0  0  0  0  0  0  0  0  0
    2.5981   -8.1073    0.0000 C   0  0  0  0  0  0  0  0  0  0  0  0
    1.2990   -7.3573    0.0000 C   0  0  0  0  0  0  0  0  0  0  0  0
  1  2  1  0
  2  3  1  0
  3  4  1  0
  4  5  2  0
  5  6  1  0
  6  7  2  0
  7  8  1  0
  8  9  2  0
  2 10  1  0
 10 11  2  0
 10 12  1  0
 12 13  1  0
 13 14  1  0
 14 15  2  0
 14 16  1  0
 16 17  2  0
 17 18  1  0
 18 19  2  0
 19 20  1  0
 20 21  1  0
 21 22  1  0
 22 23  2  0
 22 24  1  0
 24 25  2  0
 25 26  1  0
 26 27  2  0
 27 28  1  0
 28 29  2  0
 29 30  1  0
 30 31  2  0
 31 32  1  0
 32 33  2  0
 33 34  1  0
 34 35  1  0
 34 36  1  0
 34 37  1  0
 33 38  1  0
 38 39  2  0
 20 40  2  0
 40 41  1  0
 41 42  2  0
 42 43  1  0
 43 44  1  0
 12 45  1  0
 45 46  2  0
 46 47  1  0
 47 48  2  0
 48 49  1  0
 49 50  2  0
  9  4  1  0
 43 16  1  0
 50 45  1  0
 42 18  1  0
 29 24  1  0
 39 30  1  0
M  END
>  <Synonyms>  (357) 
CP-742,033|DIRLOTAPIDE

>  <Research Codes>  (357) 
CP-742033

>  <Phase>  (357) 
1

>  <Applicants>  (357) 
nan

>  <USAN Stem>  (357) 
'-tapide'

>  <USAN Year>  (357) 
2004.0

>  <USAN Stem Definition>  (357) 
microsomal triglyceride transfer protein (MTP) inhibitors

>  <USAN Stem Substem>  (357) 
'-tapide(-tapide)'

>  <First Approval>  (357) 
nan

>  <ATC Codes>  (357) 
nan

>  <Level 4 ATC Codes>  (357) 
nan

>  <Level 3 ATC Codes>  (357) 
nan

>  <Level 2 ATC Codes>  (357) 
nan

>  <Level 1 ATC Codes>  (357) 
nan

>  <Indication Class>  (357) 
nan

>  <Patent>  (357) 
nan

>  <Drug Type>  (357) 
1:Synthetic Small Molecule

>  <Passes Rule of Five>  (357) 
False

>  <First In Class>  (357) 
False

>  <Chirality>  (357) 
Single Stereoisomer

>  <Prodrug>  (357) 
False

>  <Oral>  (357) 
False

>  <Parenteral>  (357) 
False

>  <Topical>  (357) 
False

>  <Black Box>  (357) 
False

>  <Availability Type>  (357) 
Unknown

>  <Withdrawn Year>  (357) 
nan

>  <Withdrawn Reason>  (357) 
nan

>  <Withdrawn Country>  (357) 
nan

>  <Withdrawn Class>  (357) 
nan

>  <SMILES>  (357) 
CN(Cc1ccccc1)C(=O)[C@@H](NC(=O)c1cc2cc(NC(=O)c3ccccc3-c3ccc(C(F)(F)F)cc3)ccc2n1C)c1ccccc1

>  <InChi Key>  (357) 
TUOSYWCFRFNJBS-UHFFFAOYSA-N

$$$$
CHEMBL518043
     RDKit          2D

 34 37  0  0  0  0  0  0  0  0999 V2000
   -8.1129   -3.6696    0.0000 C   0  0  0  0  0  0  0  0  0  0  0  0
   -6.6505   -4.0034    0.0000 C   0  0  0  0  0  0  0  0  0  0  0  0
   -5.6303   -2.9038    0.0000 C   0  0  0  0  0  0  0  0  0  0  0  0
   -4.1679   -3.2376    0.0000 C   0  0  0  0  0  0  0  0  0  0  0  0
   -3.1476   -2.1380    0.0000 C   0  0  0  0  0  0  0  0  0  0  0  0
   -3.5898   -0.7046    0.0000 O   0  0  0  0  0  0  0  0  0  0  0  0
   -1.6852   -2.4718    0.0000 N   0  0  0  0  0  0  0  0  0  0  0  0
   -1.3515   -3.9342    0.0000 C   0  0  0  0  0  0  0  0  0  0  0  0
    0.0000   -4.5850    0.0000 C   0  0  0  0  0  0  0  0  0  0  0  0
    1.3515   -3.9342    0.0000 C   0  0  0  0  0  0  0  0  0  0  0  0
    1.6852   -2.4718    0.0000 C   0  0  0  0  0  0  0  0  0  0  0  0
    0.7500   -1.2990    0.0000 C   0  0  0  0  0  0  0  0  0  0  0  0
    1.5000    0.0000    0.0000 C   0  0  0  0  0  0  0  0  0  0  0  0
    0.7500    1.2990    0.0000 C   0  0  0  0  0  0  0  0  0  0  0  0
   -0.7500    1.2990    0.0000 C   0  0  0  0  0  0  0  0  0  0  0  0
   -1.5000    0.0000    0.0000 C   0  0  0  0  0  0  0  0  0  0  0  0
   -0.7500   -1.2990    0.0000 C   0  0  0  0  0  0  0  0  0  0  0  0
   -3.7258   -4.6709    0.0000 C   0  0  0  0  0  0  0  0  0  0  0  0
   -4.7460   -5.7705    0.0000 C   0  0  0  0  0  0  0  0  0  0  0  0
   -6.2084   -5.4367    0.0000 C   0  0  0  0  0  0  0  0  0  0  0  0
   -7.2287   -6.5363    0.0000 C   0  0  0  0  0  0  0  0  0  0  0  0
   -6.7865   -7.9697    0.0000 N   0  0  0  0  0  0  0  0  0  0  0  0
   -7.8068   -9.0693    0.0000 C   0  0  0  0  0  0  0  0  0  0  0  0
   -9.2692   -8.7355    0.0000 O   0  0  0  0  0  0  0  0  0  0  0  0
   -7.3647  -10.5026    0.0000 N   0  0  0  0  0  0  0  0  0  0  0  0
   -5.9452  -10.9874    0.0000 C   0  0  0  0  0  0  0  0  0  0  0  0
   -5.9676  -12.4873    0.0000 C   0  0  0  0  0  0  0  0  0  0  0  0
   -7.4010  -12.9294    0.0000 C   0  0  0  0  0  0  0  0  0  0  0  0
   -8.2644  -11.7028    0.0000 C   0  0  0  0  0  0  0  0  0  0  0  0
   -9.7642  -11.6804    0.0000 C   0  0  0  0  0  0  0  0  0  0  0  0
  -10.4947  -10.3703    0.0000 O   0  0  0  0  0  0  0  0  0  0  0  0
  -10.5336  -12.9680    0.0000 N   0  0  0  0  0  0  0  0  0  0  0  0
  -12.0334  -12.9456    0.0000 C   0  0  0  0  0  0  0  0  0  0  0  0
   -9.8031  -14.2782    0.0000 C   0  0  0  0  0  0  0  0  0  0  0  0
  1  2  1  0
  2  3  2  0
  3  4  1  0
  4  5  1  0
  5  6  2  0
  5  7  1  0
  7  8  1  0
  8  9  1  0
  9 10  1  0
 10 11  1  0
 11 12  1  0
 12 13  2  0
 13 14  1  0
 14 15  2  0
 15 16  1  0
 16 17  2  0
  4 18  2  0
 18 19  1  0
 19 20  2  0
 20 21  1  0
 21 22  1  0
 22 23  1  0
 23 24  2  0
 23 25  1  0
 25 26  1  0
 26 27  1  0
 27 28  1  0
 28 29  1  0
 29 30  1  0
 30 31  2  0
 30 32  1  0
 32 33  1  0
 32 34  1  0
 20  2  1  0
 29 25  1  0
 17  7  1  0
 17 12  1  0
M  END
>  <Synonyms>  (358) 
FEDOVAPAGON|VA-106483

>  <Research Codes>  (358) 
VA-106483

>  <Phase>  (358) 
1

>  <Applicants>  (358) 
nan

>  <USAN Stem>  (358) 
nan

>  <USAN Year>  (358) 
nan

>  <USAN Stem Definition>  (358) 
nan

>  <USAN Stem Substem>  (358) 
nan

>  <First Approval>  (358) 
nan

>  <ATC Codes>  (358) 
nan

>  <Level 4 ATC Codes>  (358) 
nan

>  <Level 3 ATC Codes>  (358) 
nan

>  <Level 2 ATC Codes>  (358) 
nan

>  <Level 1 ATC Codes>  (358) 
nan

>  <Indication Class>  (358) 
nan

>  <Patent>  (358) 
nan

>  <Drug Type>  (358) 
1:Synthetic Small Molecule

>  <Passes Rule of Five>  (358) 
True

>  <First In Class>  (358) 
False

>  <Chirality>  (358) 
Single Stereoisomer

>  <Prodrug>  (358) 
False

>  <Oral>  (358) 
False

>  <Parenteral>  (358) 
False

>  <Topical>  (358) 
False

>  <Black Box>  (358) 
False

>  <Availability Type>  (358) 
Unknown

>  <Withdrawn Year>  (358) 
nan

>  <Withdrawn Reason>  (358) 
nan

>  <Withdrawn Country>  (358) 
nan

>  <Withdrawn Class>  (358) 
nan

>  <SMILES>  (358) 
Cc1cc(C(=O)N2CCCCc3ccccc32)ccc1CNC(=O)N1CCC[C@H]1C(=O)N(C)C

>  <InChi Key>  (358) 
RUOLFWZIFNQQGH-UHFFFAOYSA-N

$$$$
CHEMBL147806
     RDKit          2D

 25 27  0  0  0  0  0  0  0  0999 V2000
    9.7500   -5.3971    0.0000 C   0  0  0  0  0  0  0  0  0  0  0  0
    9.7500   -3.8971    0.0000 C   0  0  0  0  0  0  0  0  0  0  0  0
    9.7500   -2.3971    0.0000 C   0  0  0  0  0  0  0  0  0  0  0  0
   11.2500   -3.8971    0.0000 C   0  0  0  0  0  0  0  0  0  0  0  0
    8.2500   -3.8971    0.0000 N   0  0  0  0  0  0  0  0  0  0  0  0
    7.5000   -2.5981    0.0000 C   0  0  0  0  0  0  0  0  0  0  0  0
    6.0000   -2.5981    0.0000 C   0  0  0  0  0  0  0  0  0  0  0  0
    5.2500   -3.8971    0.0000 C   0  0  0  0  0  0  0  0  0  0  0  0
    3.7500   -3.8971    0.0000 C   0  0  0  0  0  0  0  0  0  0  0  0
    3.0000   -2.5981    0.0000 C   0  0  0  0  0  0  0  0  0  0  0  0
    1.5000   -2.5981    0.0000 N   0  0  0  0  0  0  0  0  0  0  0  0
    0.7500   -1.2990    0.0000 C   0  0  0  0  0  0  0  0  0  0  0  0
    1.5000    0.0000    0.0000 C   0  0  0  0  0  0  0  0  0  0  0  0
    0.7500    1.2990    0.0000 C   0  0  0  0  0  0  0  0  0  0  0  0
   -0.7500    1.2990    0.0000 N   0  0  0  0  0  0  0  0  0  0  0  0
   -1.5000    0.0000    0.0000 C   0  0  0  0  0  0  0  0  0  0  0  0
   -3.0000    0.0000    0.0000 C   0  0  0  0  0  0  0  0  0  0  0  0
   -3.7500   -1.2990    0.0000 C   0  0  0  0  0  0  0  0  0  0  0  0
   -5.2500   -1.2990    0.0000 Cl  0  0  0  0  0  0  0  0  0  0  0  0
   -3.0000   -2.5981    0.0000 C   0  0  0  0  0  0  0  0  0  0  0  0
   -1.5000   -2.5981    0.0000 C   0  0  0  0  0  0  0  0  0  0  0  0
   -0.7500   -1.2990    0.0000 C   0  0  0  0  0  0  0  0  0  0  0  0
    3.7500   -1.2990    0.0000 C   0  0  0  0  0  0  0  0  0  0  0  0
    5.2500   -1.2990    0.0000 C   0  0  0  0  0  0  0  0  0  0  0  0
    6.0000   -0.0000    0.0000 O   0  0  0  0  0  0  0  0  0  0  0  0
  1  2  1  0
  2  3  1  0
  2  4  1  0
  2  5  1  0
  5  6  1  0
  6  7  1  0
  7  8  2  0
  8  9  1  0
  9 10  2  0
 10 11  1  0
 11 12  2  3
 12 13  1  0
 13 14  2  0
 14 15  1  0
 15 16  1  0
 16 17  2  0
 17 18  1  0
 18 19  1  0
 18 20  2  0
 20 21  1  0
 21 22  2  0
 10 23  1  0
 23 24  2  0
 24 25  1  0
 24  7  1  0
 22 12  1  0
 22 16  1  0
M  END
>  <Synonyms>  (359) 
GSK-369796

>  <Research Codes>  (359) 
GSK369796

>  <Phase>  (359) 
1

>  <Applicants>  (359) 
nan

>  <USAN Stem>  (359) 
nan

>  <USAN Year>  (359) 
nan

>  <USAN Stem Definition>  (359) 
nan

>  <USAN Stem Substem>  (359) 
nan

>  <First Approval>  (359) 
nan

>  <ATC Codes>  (359) 
nan

>  <Level 4 ATC Codes>  (359) 
nan

>  <Level 3 ATC Codes>  (359) 
nan

>  <Level 2 ATC Codes>  (359) 
nan

>  <Level 1 ATC Codes>  (359) 
nan

>  <Indication Class>  (359) 
nan

>  <Patent>  (359) 
nan

>  <Drug Type>  (359) 
1:Synthetic Small Molecule

>  <Passes Rule of Five>  (359) 
False

>  <First In Class>  (359) 
False

>  <Chirality>  (359) 
Unknown

>  <Prodrug>  (359) 
False

>  <Oral>  (359) 
False

>  <Parenteral>  (359) 
False

>  <Topical>  (359) 
False

>  <Black Box>  (359) 
False

>  <Availability Type>  (359) 
Unknown

>  <Withdrawn Year>  (359) 
nan

>  <Withdrawn Reason>  (359) 
nan

>  <Withdrawn Country>  (359) 
nan

>  <Withdrawn Class>  (359) 
nan

>  <SMILES>  (359) 
CC(C)(C)NCc1ccc(Nc2ccnc3cc(Cl)ccc23)cc1O

>  <InChi Key>  (359) 
ZVMMVSSEAMUNGI-UHFFFAOYSA-N

$$$$
CHEMBL246600
     RDKit          2D

 24 25  0  0  0  0  0  0  0  0999 V2000
    3.7500   -1.2990    0.0000 C   0  0  0  0  0  0  0  0  0  0  0  0
    3.0000    0.0000    0.0000 O   0  0  0  0  0  0  0  0  0  0  0  0
    1.5000    0.0000    0.0000 C   0  0  0  0  0  0  0  0  0  0  0  0
    0.7500   -1.2990    0.0000 C   0  0  0  0  0  0  0  0  0  0  0  0
   -0.7500   -1.2990    0.0000 C   0  0  0  0  0  0  0  0  0  0  0  0
   -1.5000    0.0000    0.0000 C   0  0  0  0  0  0  0  0  0  0  0  0
   -3.0000    0.0000    0.0000 C   0  0  0  0  0  0  0  0  0  0  0  0
   -3.7500    1.2990    0.0000 C   0  0  0  0  0  0  0  0  0  0  0  0
   -3.0000    2.5981    0.0000 O   0  0  0  0  0  0  0  0  0  0  0  0
   -5.2500    1.2990    0.0000 C   0  0  0  0  0  0  0  0  0  0  0  0
   -6.0000    2.5981    0.0000 C   0  0  0  0  0  0  0  0  0  0  0  0
   -7.5000    2.5981    0.0000 C   0  0  0  0  0  0  0  0  0  0  0  0
   -8.2500    3.8971    0.0000 O   0  0  0  0  0  0  0  0  0  0  0  0
   -7.5000    5.1962    0.0000 C   0  0  0  0  0  0  0  0  0  0  0  0
   -8.2500    1.2990    0.0000 C   0  0  0  0  0  0  0  0  0  0  0  0
   -9.7500    1.2990    0.0000 O   0  0  0  0  0  0  0  0  0  0  0  0
  -10.5000    0.0000    0.0000 C   0  0  0  0  0  0  0  0  0  0  0  0
   -7.5000    0.0000    0.0000 C   0  0  0  0  0  0  0  0  0  0  0  0
   -8.2500   -1.2990    0.0000 O   0  0  0  0  0  0  0  0  0  0  0  0
   -7.5000   -2.5981    0.0000 C   0  0  0  0  0  0  0  0  0  0  0  0
   -6.0000    0.0000    0.0000 C   0  0  0  0  0  0  0  0  0  0  0  0
   -0.7500    1.2990    0.0000 C   0  0  0  0  0  0  0  0  0  0  0  0
    0.7500    1.2990    0.0000 C   0  0  0  0  0  0  0  0  0  0  0  0
    1.5000    2.5981    0.0000 O   0  0  0  0  0  0  0  0  0  0  0  0
  1  2  1  0
  2  3  1  0
  3  4  2  0
  4  5  1  0
  5  6  2  0
  6  7  1  0
  7  8  1  0
  8  9  1  6
  8 10  1  0
 10 11  2  0
 11 12  1  0
 12 13  1  0
 13 14  1  0
 12 15  2  0
 15 16  1  0
 16 17  1  0
 15 18  1  0
 18 19  1  0
 19 20  1  0
 18 21  2  0
  6 22  1  0
 22 23  2  0
 23 24  1  0
 23  3  1  0
 21 10  1  0
M  END
>  <Synonyms>  (360) 
COMBRETASTATIN|NSC-348103

>  <Research Codes>  (360) 
NSC-348103

>  <Phase>  (360) 
1

>  <Applicants>  (360) 
nan

>  <USAN Stem>  (360) 
'-stat-'

>  <USAN Year>  (360) 
nan

>  <USAN Stem Definition>  (360) 
enzyme inhibitors: antihyperlipidemics (HMG-CoA inhibitors)

>  <USAN Stem Substem>  (360) 
'-stat-(-stat- (-statin))'

>  <First Approval>  (360) 
nan

>  <ATC Codes>  (360) 
nan

>  <Level 4 ATC Codes>  (360) 
nan

>  <Level 3 ATC Codes>  (360) 
nan

>  <Level 2 ATC Codes>  (360) 
nan

>  <Level 1 ATC Codes>  (360) 
nan

>  <Indication Class>  (360) 
nan

>  <Patent>  (360) 
nan

>  <Drug Type>  (360) 
1:Synthetic Small Molecule

>  <Passes Rule of Five>  (360) 
True

>  <First In Class>  (360) 
False

>  <Chirality>  (360) 
Single Stereoisomer

>  <Prodrug>  (360) 
False

>  <Oral>  (360) 
False

>  <Parenteral>  (360) 
False

>  <Topical>  (360) 
False

>  <Black Box>  (360) 
False

>  <Availability Type>  (360) 
Unknown

>  <Withdrawn Year>  (360) 
nan

>  <Withdrawn Reason>  (360) 
nan

>  <Withdrawn Country>  (360) 
nan

>  <Withdrawn Class>  (360) 
nan

>  <SMILES>  (360) 
COc1ccc(C[C@@H](O)c2cc(OC)c(OC)c(OC)c2)cc1O

>  <InChi Key>  (360) 
LGZKGOGODCLQHG-CYBMUJFWSA-N

$$$$
CHEMBL2386346
     RDKit          2D

 49 53  0  0  0  0  0  0  0  0999 V2000
    5.2500   -1.2990    0.0000 C   0  0  0  0  0  0  0  0  0  0  0  0
    3.7500   -1.2990    0.0000 C   0  0  0  0  0  0  0  0  0  0  0  0
    3.0000    0.0000    0.0000 O   0  0  0  0  0  0  0  0  0  0  0  0
    1.5000    0.0000    0.0000 C   0  0  0  0  0  0  0  0  0  0  0  0
    0.7500   -1.2990    0.0000 C   0  0  0  0  0  0  0  0  0  0  0  0
   -0.7500   -1.2990    0.0000 C   0  0  0  0  0  0  0  0  0  0  0  0
   -1.5000   -2.5981    0.0000 C   0  0  0  0  0  0  0  0  0  0  0  0
   -2.7990   -1.8481    0.0000 C   0  0  0  0  0  0  0  0  0  0  0  0
   -0.2010   -3.3481    0.0000 C   0  0  0  0  0  0  0  0  0  0  0  0
   -2.2500   -3.8971    0.0000 C   0  0  0  0  0  0  0  0  0  0  0  0
   -1.5000    0.0000    0.0000 C   0  0  0  0  0  0  0  0  0  0  0  0
   -0.7500    1.2990    0.0000 C   0  0  0  0  0  0  0  0  0  0  0  0
    0.7500    1.2990    0.0000 C   0  0  0  0  0  0  0  0  0  0  0  0
    1.5000    2.5981    0.0000 C   0  0  0  0  0  0  0  0  0  0  0  0
    0.8899    3.9684    0.0000 N   0  0  0  0  0  0  0  0  0  0  0  0
    2.0046    4.9721    0.0000 C   0  0  0  0  0  0  0  0  0  0  0  0
    0.8899    5.9758    0.0000 C   0  0  0  0  0  0  0  0  0  0  0  0
    2.8863    6.1856    0.0000 C   0  0  0  0  0  0  0  0  0  0  0  0
    2.2762    7.5559    0.0000 C   0  0  0  0  0  0  0  0  0  0  0  0
    3.1579    8.7695    0.0000 C   0  0  0  0  0  0  0  0  0  0  0  0
    4.6496    8.6127    0.0000 C   0  0  0  0  0  0  0  0  0  0  0  0
    5.5313    9.8262    0.0000 Cl  0  0  0  0  0  0  0  0  0  0  0  0
    5.2598    7.2423    0.0000 C   0  0  0  0  0  0  0  0  0  0  0  0
    4.3781    6.0288    0.0000 C   0  0  0  0  0  0  0  0  0  0  0  0
    3.3037    4.2221    0.0000 C   0  0  0  0  0  0  0  0  0  0  0  0
    4.1349    5.2859    0.0000 C   0  0  0  0  0  0  0  0  0  0  0  0
    4.7302    3.7586    0.0000 C   0  0  0  0  0  0  0  0  0  0  0  0
    5.0421    2.2913    0.0000 C   0  0  0  0  0  0  0  0  0  0  0  0
    6.4687    1.8278    0.0000 C   0  0  0  0  0  0  0  0  0  0  0  0
    7.5834    2.8315    0.0000 C   0  0  0  0  0  0  0  0  0  0  0  0
    9.0100    2.3680    0.0000 Cl  0  0  0  0  0  0  0  0  0  0  0  0
    7.2715    4.2987    0.0000 C   0  0  0  0  0  0  0  0  0  0  0  0
    5.8450    4.7623    0.0000 C   0  0  0  0  0  0  0  0  0  0  0  0
    2.9918    2.7549    0.0000 N   0  0  0  0  0  0  0  0  0  0  0  0
    3.9955    1.6402    0.0000 C   0  0  0  0  0  0  0  0  0  0  0  0
    5.4946    1.5877    0.0000 O   0  0  0  0  0  0  0  0  0  0  0  0
    3.5320    0.2136    0.0000 N   0  0  0  0  0  0  0  0  0  0  0  0
    2.0647   -0.0983    0.0000 C   0  0  0  0  0  0  0  0  0  0  0  0
    1.6012   -1.5249    0.0000 C   0  0  0  0  0  0  0  0  0  0  0  0
    2.6049   -2.6396    0.0000 N   0  0  0  0  0  0  0  0  0  0  0  0
    2.1414   -4.0662    0.0000 C   0  0  0  0  0  0  0  0  0  0  0  0
    3.1451   -5.1809    0.0000 C   0  0  0  0  0  0  0  0  0  0  0  0
    2.6815   -6.6075    0.0000 C   0  0  0  0  0  0  0  0  0  0  0  0
    3.6852   -7.7222    0.0000 S   0  0  0  0  0  0  0  0  0  0  0  0
    4.6889   -8.8369    0.0000 C   0  0  0  0  0  0  0  0  0  0  0  0
    4.8000   -6.7185    0.0000 O   0  0  0  0  0  0  0  0  0  0  0  0
    2.5705   -8.7259    0.0000 O   0  0  0  0  0  0  0  0  0  0  0  0
    4.0721   -2.3277    0.0000 C   0  0  0  0  0  0  0  0  0  0  0  0
    4.5356   -0.9012    0.0000 C   0  0  0  0  0  0  0  0  0  0  0  0
  1  2  1  0
  2  3  1  0
  3  4  1  0
  4  5  2  0
  5  6  1  0
  6  7  1  0
  7  8  1  0
  7  9  1  0
  7 10  1  0
  6 11  2  0
 11 12  1  0
 12 13  2  0
 13 14  1  0
 14 15  2  0
 15 16  1  0
 16 17  1  6
 16 18  1  0
 18 19  2  0
 19 20  1  0
 20 21  2  0
 21 22  1  0
 21 23  1  0
 23 24  2  0
 16 25  1  0
 25 26  1  6
 25 27  1  0
 27 28  2  0
 28 29  1  0
 29 30  2  0
 30 31  1  0
 30 32  1  0
 32 33  2  0
 25 34  1  0
 34 35  1  0
 35 36  2  0
 35 37  1  0
 37 38  1  0
 38 39  1  0
 39 40  1  0
 40 41  1  0
 41 42  1  0
 42 43  1  0
 43 44  1  0
 44 45  1  0
 44 46  2  0
 44 47  2  0
 40 48  1  0
 48 49  1  0
 13  4  1  0
 34 14  1  0
 49 37  1  0
 24 18  1  0
 33 27  1  0
M  END
>  <Synonyms>  (361) 
R 7112|RG-7112|RG7112|RO-5045337|RO5045337

>  <Research Codes>  (361) 
R 7112|RG-7112|RG7112|RO-5045337|RO5045337

>  <Phase>  (361) 
1

>  <Applicants>  (361) 
nan

>  <USAN Stem>  (361) 
nan

>  <USAN Year>  (361) 
nan

>  <USAN Stem Definition>  (361) 
nan

>  <USAN Stem Substem>  (361) 
nan

>  <First Approval>  (361) 
nan

>  <ATC Codes>  (361) 
nan

>  <Level 4 ATC Codes>  (361) 
nan

>  <Level 3 ATC Codes>  (361) 
nan

>  <Level 2 ATC Codes>  (361) 
nan

>  <Level 1 ATC Codes>  (361) 
nan

>  <Indication Class>  (361) 
nan

>  <Patent>  (361) 
nan

>  <Drug Type>  (361) 
1:Synthetic Small Molecule

>  <Passes Rule of Five>  (361) 
False

>  <First In Class>  (361) 
False

>  <Chirality>  (361) 
Single Stereoisomer

>  <Prodrug>  (361) 
False

>  <Oral>  (361) 
False

>  <Parenteral>  (361) 
False

>  <Topical>  (361) 
False

>  <Black Box>  (361) 
False

>  <Availability Type>  (361) 
Unknown

>  <Withdrawn Year>  (361) 
nan

>  <Withdrawn Reason>  (361) 
nan

>  <Withdrawn Country>  (361) 
nan

>  <Withdrawn Class>  (361) 
nan

>  <SMILES>  (361) 
CCOc1cc(C(C)(C)C)ccc1C1=N[C@@](C)(c2ccc(Cl)cc2)[C@@](C)(c2ccc(Cl)cc2)N1C(=O)N1CCN(CCCS(C)(=O)=O)CC1

>  <InChi Key>  (361) 
QBGKPEROWUKSBK-QPPIDDCLSA-N

$$$$
CHEMBL3623004
     RDKit          2D

 32 35  0  0  0  0  0  0  0  0999 V2000
   -4.1110   -5.4376    0.0000 C   0  0  0  0  0  0  0  0  0  0  0  0
   -2.7406   -4.8275    0.0000 C   0  0  0  0  0  0  0  0  0  0  0  0
   -2.5838   -3.3357    0.0000 C   0  0  0  0  0  0  0  0  0  0  0  0
   -1.2135   -2.7256    0.0000 C   0  0  0  0  0  0  0  0  0  0  0  0
    0.0000   -3.6073    0.0000 C   0  0  0  0  0  0  0  0  0  0  0  0
    1.2135   -2.7256    0.0000 N   0  0  0  0  0  0  0  0  0  0  0  0
    0.7500   -1.2990    0.0000 C   0  0  0  0  0  0  0  0  0  0  0  0
    1.5000    0.0000    0.0000 C   0  0  0  0  0  0  0  0  0  0  0  0
    0.7500    1.2990    0.0000 C   0  0  0  0  0  0  0  0  0  0  0  0
   -0.7500    1.2990    0.0000 C   0  0  0  0  0  0  0  0  0  0  0  0
   -1.5000    0.0000    0.0000 C   0  0  0  0  0  0  0  0  0  0  0  0
   -0.7500   -1.2990    0.0000 C   0  0  0  0  0  0  0  0  0  0  0  0
   -0.1568   -5.0991    0.0000 C   0  0  0  0  0  0  0  0  0  0  0  0
    1.0567   -5.9808    0.0000 C   0  0  0  0  0  0  0  0  0  0  0  0
    0.8999   -7.4725    0.0000 C   0  0  0  0  0  0  0  0  0  0  0  0
   -0.4704   -8.0826    0.0000 F   0  0  0  0  0  0  0  0  0  0  0  0
    2.1135   -8.3542    0.0000 C   0  0  0  0  0  0  0  0  0  0  0  0
    3.4838   -7.7441    0.0000 C   0  0  0  0  0  0  0  0  0  0  0  0
    4.6973   -8.6258    0.0000 C   0  0  0  0  0  0  0  0  0  0  0  0
    4.5405  -10.1176    0.0000 C   0  0  0  0  0  0  0  0  0  0  0  0
    5.7540  -10.9993    0.0000 C   0  0  0  0  0  0  0  0  0  0  0  0
    7.1244  -10.3892    0.0000 O   0  0  0  0  0  0  0  0  0  0  0  0
    5.5972  -12.4910    0.0000 O   0  0  0  0  0  0  0  0  0  0  0  0
    3.6406   -6.2523    0.0000 C   0  0  0  0  0  0  0  0  0  0  0  0
    2.4271   -5.3707    0.0000 C   0  0  0  0  0  0  0  0  0  0  0  0
    2.5838   -3.8789    0.0000 F   0  0  0  0  0  0  0  0  0  0  0  0
   -1.5271   -5.7092    0.0000 N   0  0  0  0  0  0  0  0  0  0  0  0
   -1.6839   -7.2010    0.0000 C   0  0  0  0  0  0  0  0  0  0  0  0
   -3.0542   -7.8111    0.0000 C   0  0  0  0  0  0  0  0  0  0  0  0
   -3.6643   -6.4408    0.0000 C   0  0  0  0  0  0  0  0  0  0  0  0
   -2.4441   -9.1814    0.0000 C   0  0  0  0  0  0  0  0  0  0  0  0
   -4.4245   -8.4212    0.0000 F   0  0  0  0  0  0  0  0  0  0  0  0
  2  1  1  6
  2  3  1  0
  3  4  1  0
  4  5  2  0
  5  6  1  0
  6  7  1  0
  7  8  2  0
  8  9  1  0
  9 10  2  0
 10 11  1  0
 11 12  2  0
  5 13  1  0
 13 14  1  1
 14 15  2  0
 15 16  1  0
 15 17  1  0
 17 18  2  0
 18 19  1  0
 19 20  2  0
 20 21  1  0
 21 22  2  0
 21 23  1  0
 18 24  1  0
 24 25  2  0
 25 26  1  0
 13 27  1  0
 27 28  1  0
 28 29  1  0
 29 30  1  0
 29 31  1  0
 29 32  1  0
 27  2  1  0
 12  4  1  0
 25 14  1  0
 12  7  1  0
M  END
>  <Synonyms>  (362) 
AZD 9496|AZD-9496|AZD9496

>  <Research Codes>  (362) 
AZD9496

>  <Phase>  (362) 
1

>  <Applicants>  (362) 
nan

>  <USAN Stem>  (362) 
nan

>  <USAN Year>  (362) 
nan

>  <USAN Stem Definition>  (362) 
nan

>  <USAN Stem Substem>  (362) 
nan

>  <First Approval>  (362) 
nan

>  <ATC Codes>  (362) 
nan

>  <Level 4 ATC Codes>  (362) 
nan

>  <Level 3 ATC Codes>  (362) 
nan

>  <Level 2 ATC Codes>  (362) 
nan

>  <Level 1 ATC Codes>  (362) 
nan

>  <Indication Class>  (362) 
nan

>  <Patent>  (362) 
nan

>  <Drug Type>  (362) 
1:Synthetic Small Molecule

>  <Passes Rule of Five>  (362) 
False

>  <First In Class>  (362) 
False

>  <Chirality>  (362) 
Single Stereoisomer

>  <Prodrug>  (362) 
False

>  <Oral>  (362) 
False

>  <Parenteral>  (362) 
False

>  <Topical>  (362) 
False

>  <Black Box>  (362) 
False

>  <Availability Type>  (362) 
Unknown

>  <Withdrawn Year>  (362) 
nan

>  <Withdrawn Reason>  (362) 
nan

>  <Withdrawn Country>  (362) 
nan

>  <Withdrawn Class>  (362) 
nan

>  <SMILES>  (362) 
C[C@@H]1Cc2c([nH]c3ccccc23)[C@@H](c2c(F)cc(/C=C/C(=O)O)cc2F)N1CC(C)(C)F

>  <InChi Key>  (362) 
DFBDRVGWBHBJNR-BBNFHIFMSA-N

$$$$
CHEMBL2113336
     RDKit          2D

 50 58  0  0  0  0  0  0  0  0999 V2000
    4.6741    2.6041    0.0000 C   0  0  0  0  0  0  0  0  0  0  0  0
    3.2475    2.1406    0.0000 C   0  0  0  0  0  0  0  0  0  0  0  0
    2.1328    3.1443    0.0000 N   0  0  0  0  0  0  0  0  0  0  0  0
    2.4446    4.6115    0.0000 C   0  0  0  0  0  0  0  0  0  0  0  0
    1.3299    5.6152    0.0000 C   0  0  0  0  0  0  0  0  0  0  0  0
    1.6418    7.0824    0.0000 C   0  0  0  0  0  0  0  0  0  0  0  0
    3.0684    7.5459    0.0000 O   0  0  0  0  0  0  0  0  0  0  0  0
    3.3802    9.0132    0.0000 C   0  0  0  0  0  0  0  0  0  0  0  0
    2.3849    9.7100    0.0000 O   0  0  0  0  0  0  0  0  0  0  0  0
    4.8068    9.4767    0.0000 C   0  0  0  0  0  0  0  0  0  0  0  0
    5.9215    8.4730    0.0000 C   0  0  0  0  0  0  0  0  0  0  0  0
    7.3481    8.9365    0.0000 C   0  0  0  0  0  0  0  0  0  0  0  0
    7.6600   10.4037    0.0000 C   0  0  0  0  0  0  0  0  0  0  0  0
    6.5453   11.4074    0.0000 C   0  0  0  0  0  0  0  0  0  0  0  0
    5.1187   10.9439    0.0000 C   0  0  0  0  0  0  0  0  0  0  0  0
    4.0040   11.9476    0.0000 N   0  0  0  0  0  0  0  0  0  0  0  0
    2.5367   11.6357    0.0000 C   0  0  0  0  0  0  0  0  0  0  0  0
    1.9109   10.5943    0.0000 O   0  0  0  0  0  0  0  0  0  0  0  0
    1.7867   12.9348    0.0000 C   0  0  0  0  0  0  0  0  0  0  0  0
    2.7904   14.0495    0.0000 C   0  0  0  0  0  0  0  0  0  0  0  0
    2.4786   15.5167    0.0000 C   0  0  0  0  0  0  0  0  0  0  0  0
    4.1607   13.4394    0.0000 C   0  0  0  0  0  0  0  0  0  0  0  0
    5.4598   14.1894    0.0000 O   0  0  0  0  0  0  0  0  0  0  0  0
    0.2152    6.6189    0.0000 C   0  0  0  0  0  0  0  0  0  0  0  0
   -1.2114    6.1554    0.0000 C   0  0  0  0  0  0  0  0  0  0  0  0
   -1.5233    4.6881    0.0000 C   0  0  0  0  0  0  0  0  0  0  0  0
   -2.9499    4.2246    0.0000 O   0  0  0  0  0  0  0  0  0  0  0  0
   -4.0646    5.2283    0.0000 C   0  0  0  0  0  0  0  0  0  0  0  0
   -0.4086    3.6844    0.0000 C   0  0  0  0  0  0  0  0  0  0  0  0
    0.7062    2.6807    0.0000 C   0  0  0  0  0  0  0  0  0  0  0  0
    0.3943    1.2135    0.0000 C   0  0  0  0  0  0  0  0  0  0  0  0
    1.2760    0.0000    0.0000 O   0  0  0  0  0  0  0  0  0  0  0  0
    0.3943   -1.2135    0.0000 C   0  0  0  0  0  0  0  0  0  0  0  0
   -1.0323   -0.7500    0.0000 O   0  0  0  0  0  0  0  0  0  0  0  0
   -1.0323    0.7500    0.0000 C   0  0  0  0  0  0  0  0  0  0  0  0
   -1.8644   -0.2488    0.0000 C   0  0  0  0  0  0  0  0  0  0  0  0
   -2.6252   -0.4960    0.0000 C   0  0  0  0  0  0  0  0  0  0  0  0
   -3.0826   -2.6480    0.0000 O   0  0  0  0  0  0  0  0  0  0  0  0
   -4.5092   -3.1115    0.0000 C   0  0  0  0  0  0  0  0  0  0  0  0
   -3.8855   -0.1771    0.0000 C   0  0  0  0  0  0  0  0  0  0  0  0
   -4.0134    1.3175    0.0000 C   0  0  0  0  0  0  0  0  0  0  0  0
   -1.8351    3.2209    0.0000 C   0  0  0  0  0  0  0  0  0  0  0  0
   -2.1470    1.7537    0.0000 C   0  0  0  0  0  0  0  0  0  0  0  0
   -3.0534    0.8218    0.0000 C   0  0  0  0  0  0  0  0  0  0  0  0
   -4.6883    2.2939    0.0000 O   0  0  0  0  0  0  0  0  0  0  0  0
   -6.1149    1.8303    0.0000 C   0  0  0  0  0  0  0  0  0  0  0  0
   -0.6307    2.3087    0.0000 C   0  0  0  0  0  0  0  0  0  0  0  0
   -2.1192    2.1231    0.0000 O   0  0  0  0  0  0  0  0  0  0  0  0
   -3.0242    3.3193    0.0000 C   0  0  0  0  0  0  0  0  0  0  0  0
   -0.0967    5.1517    0.0000 C   0  0  0  0  0  0  0  0  0  0  0  0
  1  2  1  0
  2  3  1  0
  3  4  1  0
  4  5  1  0
  5  6  1  6
  6  7  1  0
  7  8  1  0
  8  9  2  0
  8 10  1  0
 10 11  2  0
 11 12  1  0
 12 13  2  0
 13 14  1  0
 14 15  2  0
 15 16  1  0
 16 17  1  0
 17 18  1  0
 17 19  2  0
 19 20  1  0
 20 21  1  0
 20 22  2  0
 22 23  1  0
  5 24  1  0
 24 25  1  0
 25 26  1  0
 26 27  1  1
 27 28  1  0
 26 29  1  0
 29 30  1  1
 30 31  1  0
 31 32  1  1
 32 33  1  0
 33 34  1  0
 34 35  1  0
 35 36  1  1
 36 37  1  0
 37 38  1  6
 38 39  1  0
 37 40  1  0
 40 41  1  1
 42 41  1  1
 43 42  1  1
 43 44  1  0
 44 45  1  6
 45 46  1  0
 31 47  1  0
 47 48  1  1
 48 49  1  0
 47 50  1  0
 30  3  1  0
 35 31  1  0
 44 40  1  0
 50  5  1  1
 15 10  1  0
 22 16  1  0
 42 29  1  0
 50 29  1  0
 43 35  1  0
M  END
>  <Synonyms>  (363) 
ELATINE

>  <Research Codes>  (363) 
nan

>  <Phase>  (363) 
1

>  <Applicants>  (363) 
nan

>  <USAN Stem>  (363) 
nan

>  <USAN Year>  (363) 
nan

>  <USAN Stem Definition>  (363) 
nan

>  <USAN Stem Substem>  (363) 
nan

>  <First Approval>  (363) 
nan

>  <ATC Codes>  (363) 
nan

>  <Level 4 ATC Codes>  (363) 
nan

>  <Level 3 ATC Codes>  (363) 
nan

>  <Level 2 ATC Codes>  (363) 
nan

>  <Level 1 ATC Codes>  (363) 
nan

>  <Indication Class>  (363) 
nan

>  <Patent>  (363) 
nan

>  <Drug Type>  (363) 
7:Natural Product-derived

>  <Passes Rule of Five>  (363) 
False

>  <First In Class>  (363) 
False

>  <Chirality>  (363) 
Unknown

>  <Prodrug>  (363) 
False

>  <Oral>  (363) 
False

>  <Parenteral>  (363) 
False

>  <Topical>  (363) 
False

>  <Black Box>  (363) 
False

>  <Availability Type>  (363) 
Unknown

>  <Withdrawn Year>  (363) 
nan

>  <Withdrawn Reason>  (363) 
nan

>  <Withdrawn Country>  (363) 
nan

>  <Withdrawn Class>  (363) 
nan

>  <SMILES>  (363) 
CCN1C[C@]2(COC(=O)c3ccccc3N3C(=O)C[C@H](C)C3=O)CC[C@H](OC)[C@@]34C1[C@@]1(OCO[C@@]15C[C@H](OC)[C@H]1C[C@@H]3[C@@H]5[C@H]1OC)[C@@H](OC)[C@H]24

>  <InChi Key>  (363) 
AAVJCJXOPYWCMQ-RICWQDLCSA-N

$$$$
CHEMBL4060569
     RDKit          2D

 32 34  0  0  0  0  0  0  0  0999 V2000
   -8.2500   -1.2990    0.0000 C   0  0  0  0  0  0  0  0  0  0  0  0
   -7.5000   -2.5981    0.0000 O   0  0  0  0  0  0  0  0  0  0  0  0
   -6.0000   -2.5981    0.0000 C   0  0  0  0  0  0  0  0  0  0  0  0
   -5.2500   -3.8971    0.0000 C   0  0  0  0  0  0  0  0  0  0  0  0
   -3.7500   -3.8971    0.0000 N   0  0  0  0  0  0  0  0  0  0  0  0
   -3.0000   -2.5981    0.0000 C   0  0  0  0  0  0  0  0  0  0  0  0
   -3.7500   -1.2990    0.0000 O   0  0  0  0  0  0  0  0  0  0  0  0
   -1.5000   -2.5981    0.0000 N   0  0  0  0  0  0  0  0  0  0  0  0
   -0.7500   -3.8971    0.0000 C   0  0  0  0  0  0  0  0  0  0  0  0
    0.7500   -3.8971    0.0000 C   0  0  0  0  0  0  0  0  0  0  0  0
    1.5000   -5.1962    0.0000 O   0  0  0  0  0  0  0  0  0  0  0  0
    1.5000   -2.5981    0.0000 N   0  0  0  0  0  0  0  0  0  0  0  0
    0.7500   -1.2990    0.0000 C   0  0  0  0  0  0  0  0  0  0  0  0
    1.5000    0.0000    0.0000 C   0  0  0  0  0  0  0  0  0  0  0  0
    0.7500    1.2990    0.0000 C   0  0  0  0  0  0  0  0  0  0  0  0
    1.5000    2.5981    0.0000 O   0  0  0  0  0  0  0  0  0  0  0  0
    3.0000    2.5981    0.0000 C   0  0  0  0  0  0  0  0  0  0  0  0
   -0.7500    1.2990    0.0000 C   0  0  0  0  0  0  0  0  0  0  0  0
   -1.5000    0.0000    0.0000 N   0  0  0  0  0  0  0  0  0  0  0  0
   -0.7500   -1.2990    0.0000 C   0  0  0  0  0  0  0  0  0  0  0  0
   -6.0000   -5.1962    0.0000 C   0  0  0  0  0  0  0  0  0  0  0  0
   -7.5000   -5.1962    0.0000 C   0  0  0  0  0  0  0  0  0  0  0  0
   -8.2500   -6.4952    0.0000 C   0  0  0  0  0  0  0  0  0  0  0  0
   -7.5000   -7.7942    0.0000 C   0  0  0  0  0  0  0  0  0  0  0  0
   -8.2500   -9.0933    0.0000 O   0  0  0  0  0  0  0  0  0  0  0  0
   -9.7500   -9.0933    0.0000 C   0  0  0  0  0  0  0  0  0  0  0  0
  -11.2500   -9.0933    0.0000 F   0  0  0  0  0  0  0  0  0  0  0  0
   -9.7500  -10.5933    0.0000 F   0  0  0  0  0  0  0  0  0  0  0  0
   -9.7500   -7.5933    0.0000 F   0  0  0  0  0  0  0  0  0  0  0  0
   -6.0000   -7.7942    0.0000 C   0  0  0  0  0  0  0  0  0  0  0  0
   -5.2500   -9.0933    0.0000 F   0  0  0  0  0  0  0  0  0  0  0  0
   -5.2500   -6.4952    0.0000 C   0  0  0  0  0  0  0  0  0  0  0  0
  1  2  1  0
  2  3  1  0
  4  3  1  1
  4  5  1  0
  5  6  1  0
  6  7  2  0
  6  8  1  0
  8  9  1  0
  9 10  1  0
 10 11  2  0
 10 12  1  0
 12 13  1  0
 13 14  2  0
 14 15  1  0
 15 16  1  0
 16 17  1  0
 15 18  2  0
 18 19  1  0
 19 20  2  0
  4 21  1  0
 21 22  2  0
 22 23  1  0
 23 24  2  0
 24 25  1  0
 25 26  1  0
 26 27  1  0
 26 28  1  0
 26 29  1  0
 24 30  1  0
 30 31  1  0
 30 32  2  0
 20  8  1  0
 32 21  1  0
 20 13  1  0
M  END
>  <Synonyms>  (364) 
TAK-915

>  <Research Codes>  (364) 
nan

>  <Phase>  (364) 
1

>  <Applicants>  (364) 
nan

>  <USAN Stem>  (364) 
nan

>  <USAN Year>  (364) 
nan

>  <USAN Stem Definition>  (364) 
nan

>  <USAN Stem Substem>  (364) 
nan

>  <First Approval>  (364) 
nan

>  <ATC Codes>  (364) 
nan

>  <Level 4 ATC Codes>  (364) 
nan

>  <Level 3 ATC Codes>  (364) 
nan

>  <Level 2 ATC Codes>  (364) 
nan

>  <Level 1 ATC Codes>  (364) 
nan

>  <Indication Class>  (364) 
nan

>  <Patent>  (364) 
nan

>  <Drug Type>  (364) 
1:Synthetic Small Molecule

>  <Passes Rule of Five>  (364) 
True

>  <First In Class>  (364) 
False

>  <Chirality>  (364) 
Single Stereoisomer

>  <Prodrug>  (364) 
False

>  <Oral>  (364) 
False

>  <Parenteral>  (364) 
False

>  <Topical>  (364) 
False

>  <Black Box>  (364) 
False

>  <Availability Type>  (364) 
Unknown

>  <Withdrawn Year>  (364) 
nan

>  <Withdrawn Reason>  (364) 
nan

>  <Withdrawn Country>  (364) 
nan

>  <Withdrawn Class>  (364) 
nan

>  <SMILES>  (364) 
COC[C@@H](NC(=O)N1CC(=O)Nc2cc(OC)cnc21)c1ccc(OC(F)(F)F)c(F)c1

>  <InChi Key>  (364) 
AWJSRXUQLSPAOI-CQSZACIVSA-N

$$$$
CHEMBL2151570
     RDKit          2D

 24 28  0  0  0  0  0  0  0  0999 V2000
    1.2760    0.0000    0.0000 C   0  0  0  0  0  0  0  0  0  0  0  0
    0.3943    1.2135    0.0000 C   0  0  0  0  0  0  0  0  0  0  0  0
   -1.0323    0.7500    0.0000 C   0  0  0  0  0  0  0  0  0  0  0  0
   -2.3313    1.5000    0.0000 C   0  0  0  0  0  0  0  0  0  0  0  0
   -3.6304    0.7500    0.0000 C   0  0  0  0  0  0  0  0  0  0  0  0
   -4.9294    1.5000    0.0000 C   0  0  0  0  0  0  0  0  0  0  0  0
   -4.9294    3.0000    0.0000 C   0  0  0  0  0  0  0  0  0  0  0  0
   -6.2284    3.7500    0.0000 C   0  0  0  0  0  0  0  0  0  0  0  0
   -7.5275    3.0000    0.0000 C   0  0  0  0  0  0  0  0  0  0  0  0
   -8.8265    3.7500    0.0000 O   0  0  0  0  0  0  0  0  0  0  0  0
   -8.2644    6.3672    0.0000 C   0  0  0  0  0  0  0  0  0  0  0  0
   -9.4390    7.0454    0.0000 C   0  0  0  0  0  0  0  0  0  0  0  0
  -10.1256    7.5000    0.0000 N   0  0  0  0  0  0  0  0  0  0  0  0
   -8.8265    8.2500    0.0000 C   0  0  0  0  0  0  0  0  0  0  0  0
   -7.5275    7.5000    0.0000 C   0  0  0  0  0  0  0  0  0  0  0  0
   -7.5275    6.0000    0.0000 C   0  0  0  0  0  0  0  0  0  0  0  0
   -8.8265    5.2500    0.0000 C   0  0  0  0  0  0  0  0  0  0  0  0
  -10.1256    6.0000    0.0000 C   0  0  0  0  0  0  0  0  0  0  0  0
   -7.5275    1.5000    0.0000 N   0  0  0  0  0  0  0  0  0  0  0  0
   -6.2284    0.7500    0.0000 N   0  0  0  0  0  0  0  0  0  0  0  0
   -3.6304   -0.7500    0.0000 C   0  0  0  0  0  0  0  0  0  0  0  0
   -2.3313   -1.5000    0.0000 C   0  0  0  0  0  0  0  0  0  0  0  0
   -1.0323   -0.7500    0.0000 C   0  0  0  0  0  0  0  0  0  0  0  0
    0.3943   -1.2135    0.0000 N   0  0  0  0  0  0  0  0  0  0  0  0
  1  2  2  0
  2  3  1  0
  3  4  2  0
  4  5  1  0
  5  6  1  0
  6  7  2  0
  7  8  1  0
  8  9  2  0
  9 10  1  0
 11 10  1  1
 11 12  1  0
 12 13  1  0
 13 14  1  0
 14 15  1  0
 15 16  1  0
 16 17  1  0
 17 18  1  0
  9 19  1  0
 19 20  2  0
  5 21  2  0
 21 22  1  0
 22 23  2  0
 23 24  1  0
 24  1  1  0
 23  3  1  0
 20  6  1  0
 16 11  1  0
 18 13  1  0
M  END
>  <Synonyms>  (365) 
ABT-107

>  <Research Codes>  (365) 
nan

>  <Phase>  (365) 
1

>  <Applicants>  (365) 
nan

>  <USAN Stem>  (365) 
nan

>  <USAN Year>  (365) 
nan

>  <USAN Stem Definition>  (365) 
nan

>  <USAN Stem Substem>  (365) 
nan

>  <First Approval>  (365) 
nan

>  <ATC Codes>  (365) 
nan

>  <Level 4 ATC Codes>  (365) 
nan

>  <Level 3 ATC Codes>  (365) 
nan

>  <Level 2 ATC Codes>  (365) 
nan

>  <Level 1 ATC Codes>  (365) 
nan

>  <Indication Class>  (365) 
nan

>  <Patent>  (365) 
nan

>  <Drug Type>  (365) 
1:Synthetic Small Molecule

>  <Passes Rule of Five>  (365) 
True

>  <First In Class>  (365) 
False

>  <Chirality>  (365) 
Single Stereoisomer

>  <Prodrug>  (365) 
False

>  <Oral>  (365) 
False

>  <Parenteral>  (365) 
False

>  <Topical>  (365) 
False

>  <Black Box>  (365) 
False

>  <Availability Type>  (365) 
Unknown

>  <Withdrawn Year>  (365) 
nan

>  <Withdrawn Reason>  (365) 
nan

>  <Withdrawn Country>  (365) 
nan

>  <Withdrawn Class>  (365) 
nan

>  <SMILES>  (365) 
c1cc2cc(-c3ccc(O[C@H]4CN5CCC4CC5)nn3)ccc2[nH]1

>  <InChi Key>  (365) 
LUKNJAQKVPBDSC-SFHVURJKSA-N

$$$$
CHEMBL486208
     RDKit          2D

 11 12  0  0  0  0  0  0  0  0999 V2000
    2.6004    0.7041    0.0000 C   0  0  0  0  0  0  0  0  0  0  0  0
    1.2760    0.0000    0.0000 C   0  0  0  0  0  0  0  0  0  0  0  0
    2.6004   -0.7041    0.0000 C   0  0  0  0  0  0  0  0  0  0  0  0
    0.3943    1.2135    0.0000 C   0  0  0  0  0  0  0  0  0  0  0  0
   -1.0323    0.7500    0.0000 C   0  0  0  0  0  0  0  0  0  0  0  0
   -1.0323   -0.7500    0.0000 C   0  0  0  0  0  0  0  0  0  0  0  0
    0.3943   -1.2135    0.0000 C   0  0  0  0  0  0  0  0  0  0  0  0
    0.8578   -2.6401    0.0000 C   0  0  0  0  0  0  0  0  0  0  0  0
    1.8209   -0.7500    0.0000 C   0  0  0  0  0  0  0  0  0  0  0  0
    3.0344   -1.6317    0.0000 O   0  0  0  0  0  0  0  0  0  0  0  0
    1.8209    0.7500    0.0000 C   0  0  0  0  0  0  0  0  0  0  0  0
  1  2  1  0
  2  3  1  0
  2  4  1  0
  4  5  1  6
  5  6  1  0
  6  7  1  0
  7  8  1  1
  7  9  1  0
  9 10  1  6
  9 11  1  0
  7  2  1  0
 11  4  1  0
M  END
>  <Synonyms>  (366) 
(-) Borneol|BORNEOL|FEMA NO. 2157|NSC-60223

>  <Research Codes>  (366) 
FEMA NO. 2157|NSC-60223

>  <Phase>  (366) 
1

>  <Applicants>  (366) 
nan

>  <USAN Stem>  (366) 
nan

>  <USAN Year>  (366) 
nan

>  <USAN Stem Definition>  (366) 
nan

>  <USAN Stem Substem>  (366) 
nan

>  <First Approval>  (366) 
nan

>  <ATC Codes>  (366) 
nan

>  <Level 4 ATC Codes>  (366) 
nan

>  <Level 3 ATC Codes>  (366) 
nan

>  <Level 2 ATC Codes>  (366) 
nan

>  <Level 1 ATC Codes>  (366) 
nan

>  <Indication Class>  (366) 
nan

>  <Patent>  (366) 
nan

>  <Drug Type>  (366) 
1:Synthetic Small Molecule

>  <Passes Rule of Five>  (366) 
True

>  <First In Class>  (366) 
False

>  <Chirality>  (366) 
Racemic Mixture

>  <Prodrug>  (366) 
False

>  <Oral>  (366) 
False

>  <Parenteral>  (366) 
False

>  <Topical>  (366) 
False

>  <Black Box>  (366) 
False

>  <Availability Type>  (366) 
Unknown

>  <Withdrawn Year>  (366) 
nan

>  <Withdrawn Reason>  (366) 
nan

>  <Withdrawn Country>  (366) 
nan

>  <Withdrawn Class>  (366) 
nan

>  <SMILES>  (366) 
CC1(C)[C@@H]2CC[C@@]1(C)[C@@H](O)C2

>  <InChi Key>  (366) 
DTGKSKDOIYIVQL-WEDXCCLWSA-N

$$$$
CHEMBL3120793
     RDKit          2D

 45 48  0  0  0  0  0  0  0  0999 V2000
    2.5326   -7.4309    0.0000 C   0  0  0  0  0  0  0  0  0  0  0  0
    1.9225   -8.8012    0.0000 C   0  0  0  0  0  0  0  0  0  0  0  0
    2.8041  -10.0148    0.0000 C   0  0  0  0  0  0  0  0  0  0  0  0
    0.4307   -8.9580    0.0000 O   0  0  0  0  0  0  0  0  0  0  0  0
   -0.1794  -10.3283    0.0000 C   0  0  0  0  0  0  0  0  0  0  0  0
    0.7023  -11.5419    0.0000 O   0  0  0  0  0  0  0  0  0  0  0  0
   -1.6712  -10.4851    0.0000 C   0  0  0  0  0  0  0  0  0  0  0  0
   -2.2813  -11.8555    0.0000 C   0  0  0  0  0  0  0  0  0  0  0  0
   -2.5529   -9.2716    0.0000 N   0  0  0  0  0  0  0  0  0  0  0  0
   -4.0447   -9.4284    0.0000 P   0  0  0  0  0  5  0  0  0  0  0  0
   -5.5364   -9.5852    0.0000 O   0  0  0  0  0  0  0  0  0  0  0  0
   -4.2015   -7.9366    0.0000 O   0  0  0  0  0  0  0  0  0  0  0  0
   -2.9879   -7.0549    0.0000 C   0  0  0  0  0  0  0  0  0  0  0  0
   -3.1447   -5.5632    0.0000 C   0  0  0  0  0  0  0  0  0  0  0  0
   -2.0300   -4.5595    0.0000 O   0  0  0  0  0  0  0  0  0  0  0  0
   -2.6401   -3.1891    0.0000 C   0  0  0  0  0  0  0  0  0  0  0  0
   -2.9520   -1.7219    0.0000 C   0  0  0  0  0  0  0  0  0  0  0  0
   -3.2638   -0.2547    0.0000 N   0  0  0  0  0  0  0  0  0  0  0  0
   -1.2135   -2.7256    0.0000 C   0  0  0  0  0  0  0  0  0  0  0  0
   -0.0000   -3.6073    0.0000 C   0  0  0  0  0  0  0  0  0  0  0  0
    1.2135   -2.7256    0.0000 C   0  0  0  0  0  0  0  0  0  0  0  0
    0.7500   -1.2990    0.0000 C   0  0  0  0  0  0  0  0  0  0  0  0
    1.5000    0.0000    0.0000 C   0  0  0  0  0  0  0  0  0  0  0  0
    3.0000    0.0000    0.0000 N   0  0  0  0  0  0  0  0  0  0  0  0
    0.7500    1.2990    0.0000 N   0  0  0  0  0  0  0  0  0  0  0  0
   -0.7500    1.2990    0.0000 C   0  0  0  0  0  0  0  0  0  0  0  0
   -1.5000    0.0000    0.0000 N   0  0  0  0  0  0  0  0  0  0  0  0
   -0.7500   -1.2990    0.0000 N   0  0  0  0  0  0  0  0  0  0  0  0
   -4.1319   -3.3459    0.0000 C   0  0  0  0  0  0  0  0  0  0  0  0
   -4.1319   -1.8459    0.0000 C   0  0  0  0  0  0  0  0  0  0  0  0
   -5.6237   -3.1891    0.0000 O   0  0  0  0  0  0  0  0  0  0  0  0
   -4.4438   -4.8132    0.0000 C   0  0  0  0  0  0  0  0  0  0  0  0
   -5.8141   -5.4233    0.0000 O   0  0  0  0  0  0  0  0  0  0  0  0
   -7.0276   -4.5416    0.0000 C   0  0  0  0  0  0  0  0  0  0  0  0
   -6.8708   -3.0498    0.0000 O   0  0  0  0  0  0  0  0  0  0  0  0
   -8.3979   -5.1517    0.0000 C   0  0  0  0  0  0  0  0  0  0  0  0
   -9.6114   -4.2700    0.0000 C   0  0  0  0  0  0  0  0  0  0  0  0
   -8.5547   -6.6435    0.0000 C   0  0  0  0  0  0  0  0  0  0  0  0
   -3.8879  -10.9202    0.0000 O   0  0  0  0  0  0  0  0  0  0  0  0
   -5.1014  -11.8019    0.0000 C   0  0  0  0  0  0  0  0  0  0  0  0
   -4.9446  -13.2936    0.0000 C   0  0  0  0  0  0  0  0  0  0  0  0
   -6.1581  -14.1753    0.0000 C   0  0  0  0  0  0  0  0  0  0  0  0
   -7.5284  -13.5652    0.0000 C   0  0  0  0  0  0  0  0  0  0  0  0
   -7.6852  -12.0734    0.0000 C   0  0  0  0  0  0  0  0  0  0  0  0
   -6.4717  -11.1918    0.0000 C   0  0  0  0  0  0  0  0  0  0  0  0
  1  2  1  0
  2  3  1  0
  2  4  1  0
  4  5  1  0
  5  6  2  0
  5  7  1  0
  7  8  1  0
  7  9  1  0
 10  9  1  6
 10 11  2  0
 10 12  1  0
 12 13  1  0
 14 13  1  6
 14 15  1  0
 15 16  1  0
 16 17  1  1
 17 18  3  0
 16 19  1  0
 19 20  2  0
 20 21  1  0
 21 22  2  0
 22 23  1  0
 23 24  2  0
 23 25  1  0
 25 26  1  0
 26 27  2  0
 27 28  1  0
 16 29  1  0
 29 30  1  6
 29 31  1  0
 29 32  1  0
 32 33  1  1
 33 34  1  0
 34 35  2  0
 34 36  1  0
 36 37  1  0
 36 38  1  0
 10 39  1  0
 39 40  1  0
 40 41  2  0
 41 42  1  0
 42 43  2  0
 43 44  1  0
 44 45  2  0
 32 14  1  0
 45 40  1  0
 28 19  1  0
 28 22  1  0
M  END
>  <Synonyms>  (367) 
GS-6620

>  <Research Codes>  (367) 
GS-6620

>  <Phase>  (367) 
1

>  <Applicants>  (367) 
nan

>  <USAN Stem>  (367) 
nan

>  <USAN Year>  (367) 
nan

>  <USAN Stem Definition>  (367) 
nan

>  <USAN Stem Substem>  (367) 
nan

>  <First Approval>  (367) 
nan

>  <ATC Codes>  (367) 
nan

>  <Level 4 ATC Codes>  (367) 
nan

>  <Level 3 ATC Codes>  (367) 
nan

>  <Level 2 ATC Codes>  (367) 
nan

>  <Level 1 ATC Codes>  (367) 
nan

>  <Indication Class>  (367) 
nan

>  <Patent>  (367) 
nan

>  <Drug Type>  (367) 
7:Natural Product-derived

>  <Passes Rule of Five>  (367) 
False

>  <First In Class>  (367) 
False

>  <Chirality>  (367) 
Single Stereoisomer

>  <Prodrug>  (367) 
False

>  <Oral>  (367) 
False

>  <Parenteral>  (367) 
False

>  <Topical>  (367) 
False

>  <Black Box>  (367) 
False

>  <Availability Type>  (367) 
Unknown

>  <Withdrawn Year>  (367) 
nan

>  <Withdrawn Reason>  (367) 
nan

>  <Withdrawn Country>  (367) 
nan

>  <Withdrawn Class>  (367) 
nan

>  <SMILES>  (367) 
CC(C)OC(=O)[C@H](C)N[P@](=O)(OC[C@H]1O[C@@](C#N)(c2ccc3c(N)ncnn23)[C@](C)(O)[C@@H]1OC(=O)C(C)C)Oc1ccccc1

>  <InChi Key>  (367) 
YAAQYJCOIFNMKX-VNRFHENRSA-N

$$$$
CHEMBL2147475
     RDKit          2D

 36 40  0  0  0  0  0  0  0  0999 V2000
   -2.0143    8.6263    0.0000 C   0  0  0  0  0  0  0  0  0  0  0  0
   -3.4408    8.1628    0.0000 O   0  0  0  0  0  0  0  0  0  0  0  0
   -3.7527    6.6955    0.0000 C   0  0  0  0  0  0  0  0  0  0  0  0
   -2.6380    5.6918    0.0000 C   0  0  0  0  0  0  0  0  0  0  0  0
   -2.9499    4.2246    0.0000 C   0  0  0  0  0  0  0  0  0  0  0  0
   -1.8351    3.2209    0.0000 N   0  0  0  0  0  0  0  0  0  0  0  0
   -0.4086    3.6844    0.0000 C   0  0  0  0  0  0  0  0  0  0  0  0
    0.7062    2.6807    0.0000 N   0  0  0  0  0  0  0  0  0  0  0  0
    0.3943    1.2135    0.0000 C   0  0  0  0  0  0  0  0  0  0  0  0
    1.2760    0.0000    0.0000 C   0  0  0  0  0  0  0  0  0  0  0  0
    0.3943   -1.2135    0.0000 C   0  0  0  0  0  0  0  0  0  0  0  0
    0.8578   -2.6401    0.0000 C   0  0  0  0  0  0  0  0  0  0  0  0
   -0.1459   -3.7548    0.0000 C   0  0  0  0  0  0  0  0  0  0  0  0
    0.3177   -5.1814    0.0000 C   0  0  0  0  0  0  0  0  0  0  0  0
    1.7849   -5.4933    0.0000 C   0  0  0  0  0  0  0  0  0  0  0  0
    2.2484   -6.9199    0.0000 Cl  0  0  0  0  0  0  0  0  0  0  0  0
    2.7886   -4.3786    0.0000 C   0  0  0  0  0  0  0  0  0  0  0  0
    2.3250   -2.9520    0.0000 C   0  0  0  0  0  0  0  0  0  0  0  0
   -1.0323   -0.7500    0.0000 S   0  0  0  0  0  0  0  0  0  0  0  0
   -1.0323    0.7500    0.0000 C   0  0  0  0  0  0  0  0  0  0  0  0
   -2.1470    1.7537    0.0000 C   0  0  0  0  0  0  0  0  0  0  0  0
   -3.5736    1.2902    0.0000 O   0  0  0  0  0  0  0  0  0  0  0  0
   -4.3764    3.7611    0.0000 C   0  0  0  0  0  0  0  0  0  0  0  0
   -5.4912    4.7648    0.0000 C   0  0  0  0  0  0  0  0  0  0  0  0
   -5.1793    6.2320    0.0000 C   0  0  0  0  0  0  0  0  0  0  0  0
   -6.2940    7.2357    0.0000 O   0  0  0  0  0  0  0  0  0  0  0  0
   -7.7206    6.7722    0.0000 C   0  0  0  0  0  0  0  0  0  0  0  0
   -8.8353    7.7759    0.0000 C   0  0  0  0  0  0  0  0  0  0  0  0
   -8.5234    9.2431    0.0000 O   0  0  0  0  0  0  0  0  0  0  0  0
   -9.6382   10.2468    0.0000 P   0  0  0  0  0  7  0  0  0  0  0  0
   -8.6345   11.3615    0.0000 O   0  0  0  0  0  0  0  0  0  0  0  0
  -10.6419    9.1321    0.0000 O   0  0  0  0  0  0  0  0  0  0  0  0
  -10.7529   11.2505    0.0000 O   0  0  0  0  0  0  0  0  0  0  0  0
  -10.2619    7.3123    0.0000 C   0  0  0  0  0  0  0  0  0  0  0  0
  -11.2656    6.1976    0.0000 C   0  0  0  0  0  0  0  0  0  0  0  0
  -11.7291    7.6242    0.0000 C   0  0  0  0  0  0  0  0  0  0  0  0
  1  2  1  0
  2  3  1  0
  3  4  2  0
  4  5  1  0
  5  6  1  0
  6  7  1  0
  7  8  2  0
  8  9  1  0
  9 10  1  0
 10 11  2  0
 11 12  1  0
 12 13  2  0
 13 14  1  0
 14 15  2  0
 15 16  1  0
 15 17  1  0
 17 18  2  0
 11 19  1  0
 19 20  1  0
 20 21  1  0
 21 22  2  0
  5 23  2  0
 23 24  1  0
 24 25  2  0
 25 26  1  0
 26 27  1  0
 28 27  1  1
 28 29  1  0
 29 30  1  0
 30 31  2  0
 30 32  2  0
 30 33  1  0
 28 34  1  0
 34 35  1  0
 35 36  1  0
 25  3  1  0
 36 34  1  0
 21  6  1  0
 20  9  2  0
 18 12  1  0
M  END
>  <Synonyms>  (368) 
BMS-830216

>  <Research Codes>  (368) 
BMS-830216

>  <Phase>  (368) 
1

>  <Applicants>  (368) 
nan

>  <USAN Stem>  (368) 
nan

>  <USAN Year>  (368) 
nan

>  <USAN Stem Definition>  (368) 
nan

>  <USAN Stem Substem>  (368) 
nan

>  <First Approval>  (368) 
nan

>  <ATC Codes>  (368) 
nan

>  <Level 4 ATC Codes>  (368) 
nan

>  <Level 3 ATC Codes>  (368) 
nan

>  <Level 2 ATC Codes>  (368) 
nan

>  <Level 1 ATC Codes>  (368) 
nan

>  <Indication Class>  (368) 
nan

>  <Patent>  (368) 
nan

>  <Drug Type>  (368) 
1:Synthetic Small Molecule

>  <Passes Rule of Five>  (368) 
False

>  <First In Class>  (368) 
False

>  <Chirality>  (368) 
Single Stereoisomer

>  <Prodrug>  (368) 
False

>  <Oral>  (368) 
False

>  <Parenteral>  (368) 
False

>  <Topical>  (368) 
False

>  <Black Box>  (368) 
False

>  <Availability Type>  (368) 
Unknown

>  <Withdrawn Year>  (368) 
nan

>  <Withdrawn Reason>  (368) 
nan

>  <Withdrawn Country>  (368) 
nan

>  <Withdrawn Class>  (368) 
nan

>  <SMILES>  (368) 
COc1cc(-n2cnc3cc(-c4ccc(Cl)cc4)sc3c2=O)ccc1OC[C@H](OP(=O)(O)O)C1CC1

>  <InChi Key>  (368) 
ZUJNPIXBXPMUDN-NRFANRHFSA-N

$$$$
CHEMBL4285883
     RDKit          2D

 41 46  0  0  0  0  0  0  0  0999 V2000
   -3.7500   -3.8971    0.0000 C   0  0  0  0  0  0  0  0  0  0  0  0
   -3.0000   -5.1962    0.0000 O   0  0  0  0  0  0  0  0  0  0  0  0
   -1.5000   -5.1962    0.0000 C   0  0  0  0  0  0  0  0  0  0  0  0
   -0.7500   -3.8971    0.0000 C   0  0  0  0  0  0  0  0  0  0  0  0
    0.7500   -3.8971    0.0000 C   0  0  0  0  0  0  0  0  0  0  0  0
    1.5000   -2.5981    0.0000 O   0  0  0  0  0  0  0  0  0  0  0  0
    0.7500   -1.2990    0.0000 C   0  0  0  0  0  0  0  0  0  0  0  0
    1.5000    0.0000    0.0000 C   0  0  0  0  0  0  0  0  0  0  0  0
    0.7500    1.2990    0.0000 C   0  0  0  0  0  0  0  0  0  0  0  0
   -0.7500    1.2990    0.0000 C   0  0  0  0  0  0  0  0  0  0  0  0
    0.0000    2.5981    0.0000 C   0  0  0  0  0  0  0  0  0  0  0  0
   -1.5000    2.5981    0.0000 C   0  0  0  0  0  0  0  0  0  0  0  0
   -0.7500    3.8971    0.0000 C   0  0  0  0  0  0  0  0  0  0  0  0
   -1.5000    5.1962    0.0000 C   0  0  0  0  0  0  0  0  0  0  0  0
   -3.0000    5.1962    0.0000 C   0  0  0  0  0  0  0  0  0  0  0  0
   -2.3899    6.5665    0.0000 C   0  0  0  0  0  0  0  0  0  0  0  0
   -4.0037    6.3109    0.0000 C   0  0  0  0  0  0  0  0  0  0  0  0
   -3.6918    7.7781    0.0000 C   0  0  0  0  0  0  0  0  0  0  0  0
   -4.6955    8.8928    0.0000 C   0  0  0  0  0  0  0  0  0  0  0  0
   -3.9455   10.1918    0.0000 C   0  0  0  0  0  0  0  0  0  0  0  0
   -4.5556   11.5622    0.0000 O   0  0  0  0  0  0  0  0  0  0  0  0
   -2.4783    9.8800    0.0000 O   0  0  0  0  0  0  0  0  0  0  0  0
   -2.3215    8.3882    0.0000 C   0  0  0  0  0  0  0  0  0  0  0  0
   -5.3740    5.7008    0.0000 C   0  0  0  0  0  0  0  0  0  0  0  0
   -6.6731    6.4508    0.0000 O   0  0  0  0  0  0  0  0  0  0  0  0
   -7.9721    5.7008    0.0000 C   0  0  0  0  0  0  0  0  0  0  0  0
   -9.2711    6.4508    0.0000 C   0  0  0  0  0  0  0  0  0  0  0  0
   -7.9721    4.2008    0.0000 O   0  0  0  0  0  0  0  0  0  0  0  0
   -5.2172    4.2090    0.0000 C   0  0  0  0  0  0  0  0  0  0  0  0
   -3.7500    3.8971    0.0000 C   0  0  0  0  0  0  0  0  0  0  0  0
   -4.6317    2.6836    0.0000 O   0  0  0  0  0  0  0  0  0  0  0  0
   -3.0000    2.5981    0.0000 C   0  0  0  0  0  0  0  0  0  0  0  0
   -3.7500    1.2990    0.0000 C   0  0  0  0  0  0  0  0  0  0  0  0
   -3.0000    0.0000    0.0000 C   0  0  0  0  0  0  0  0  0  0  0  0
   -1.5000    0.0000    0.0000 C   0  0  0  0  0  0  0  0  0  0  0  0
   -0.7500   -1.2990    0.0000 C   0  0  0  0  0  0  0  0  0  0  0  0
    1.5000   -5.1962    0.0000 O   0  0  0  0  0  0  0  0  0  0  0  0
    0.7500   -6.4952    0.0000 C   0  0  0  0  0  0  0  0  0  0  0  0
    1.5000   -7.7942    0.0000 C   0  0  0  0  0  0  0  0  0  0  0  0
   -0.7500   -6.4952    0.0000 C   0  0  0  0  0  0  0  0  0  0  0  0
   -1.5000   -7.7942    0.0000 O   0  0  0  0  0  0  0  0  0  0  0  0
  1  2  1  0
  3  2  1  1
  3  4  1  0
  4  5  1  0
  5  6  1  6
  7  6  1  6
  7  8  1  0
  8  9  1  0
  9 10  1  0
 10 11  1  6
 10 12  1  0
 12 13  1  6
 13 14  1  0
 14 15  1  0
 15 16  1  6
 15 17  1  0
 17 18  1  0
 18 19  1  0
 19 20  2  0
 20 21  1  0
 20 22  1  0
 22 23  1  0
 17 24  1  0
 24 25  1  6
 25 26  1  0
 26 27  1  0
 26 28  2  0
 24 29  1  0
 29 30  1  0
 30 31  1  6
 30 32  1  0
 32 33  1  1
 33 34  1  0
 35 34  1  1
 35 36  1  0
  5 37  1  0
 37 38  1  0
 38 39  1  1
 38 40  1  0
 40 41  1  6
 40  3  1  0
 36  7  1  0
 35 10  1  0
 32 12  1  0
 30 15  1  0
 23 18  2  0
M  END
>  <Synonyms>  (369) 
ANVIRZEL|NSC-692219|OLEANDRIN

>  <Research Codes>  (369) 
NSC-692219

>  <Phase>  (369) 
1

>  <Applicants>  (369) 
nan

>  <USAN Stem>  (369) 
'-andr-'

>  <USAN Year>  (369) 
nan

>  <USAN Stem Definition>  (369) 
androgens

>  <USAN Stem Substem>  (369) 
'-andr-(-andr-)'

>  <First Approval>  (369) 
nan

>  <ATC Codes>  (369) 
nan

>  <Level 4 ATC Codes>  (369) 
nan

>  <Level 3 ATC Codes>  (369) 
nan

>  <Level 2 ATC Codes>  (369) 
nan

>  <Level 1 ATC Codes>  (369) 
nan

>  <Indication Class>  (369) 
nan

>  <Patent>  (369) 
nan

>  <Drug Type>  (369) 
7:Natural Product-derived

>  <Passes Rule of Five>  (369) 
False

>  <First In Class>  (369) 
False

>  <Chirality>  (369) 
Single Stereoisomer

>  <Prodrug>  (369) 
False

>  <Oral>  (369) 
False

>  <Parenteral>  (369) 
False

>  <Topical>  (369) 
False

>  <Black Box>  (369) 
False

>  <Availability Type>  (369) 
Unknown

>  <Withdrawn Year>  (369) 
nan

>  <Withdrawn Reason>  (369) 
nan

>  <Withdrawn Country>  (369) 
nan

>  <Withdrawn Class>  (369) 
nan

>  <SMILES>  (369) 
CO[C@H]1C[C@H](O[C@H]2CC[C@]3(C)[C@H]4CC[C@]5(C)[C@@H](C6=CC(=O)OC6)[C@@H](OC(C)=O)C[C@]5(O)[C@@H]4CC[C@@H]3C2)O[C@@H](C)[C@@H]1O

>  <InChi Key>  (369) 
WEGJXXVDTSUKRM-FSRYNXSISA-N

$$$$
CHEMBL3545365
     RDKit          2D

 37 41  0  0  0  0  0  0  0  0999 V2000
   -0.7500   -3.8971    0.0000 O   0  0  0  0  0  0  0  0  0  0  0  0
    0.7500   -3.8971    0.0000 C   0  0  0  0  0  0  0  0  0  0  0  0
    1.5000   -2.5981    0.0000 N   0  0  0  0  0  0  0  0  0  0  0  0
    0.7500   -1.2990    0.0000 C   0  0  0  0  0  0  0  0  0  0  0  0
    1.5000    0.0000    0.0000 C   0  0  0  0  0  0  0  0  0  0  0  0
    0.7500    1.2990    0.0000 C   0  0  0  0  0  0  0  0  0  0  0  0
    1.5000    2.5981    0.0000 O   0  0  0  0  0  0  0  0  0  0  0  0
    3.0000    2.5981    0.0000 C   0  0  0  0  0  0  0  0  0  0  0  0
    3.7500    1.2990    0.0000 C   0  0  0  0  0  0  0  0  0  0  0  0
    5.2500    1.2990    0.0000 C   0  0  0  0  0  0  0  0  0  0  0  0
    6.0000   -0.0000    0.0000 F   0  0  0  0  0  0  0  0  0  0  0  0
    6.0000    2.5981    0.0000 C   0  0  0  0  0  0  0  0  0  0  0  0
    7.5000    2.5981    0.0000 N   0  0  0  0  0  0  0  0  0  0  0  0
    8.2500    3.8971    0.0000 C   0  0  0  0  0  0  0  0  0  0  0  0
    7.5000    5.1962    0.0000 O   0  0  0  0  0  0  0  0  0  0  0  0
    9.7500    3.8971    0.0000 C   0  0  0  0  0  0  0  0  0  0  0  0
   10.0105    2.4199    0.0000 C   0  0  0  0  0  0  0  0  0  0  0  0
    8.8614    1.4557    0.0000 O   0  0  0  0  0  0  0  0  0  0  0  0
   11.4200    1.9069    0.0000 N   0  0  0  0  0  0  0  0  0  0  0  0
   11.6805    0.4297    0.0000 C   0  0  0  0  0  0  0  0  0  0  0  0
   10.5314   -0.5345    0.0000 C   0  0  0  0  0  0  0  0  0  0  0  0
   10.7919   -2.0117    0.0000 C   0  0  0  0  0  0  0  0  0  0  0  0
   12.2014   -2.5248    0.0000 C   0  0  0  0  0  0  0  0  0  0  0  0
   12.4619   -4.0020    0.0000 F   0  0  0  0  0  0  0  0  0  0  0  0
   13.3505   -1.5606    0.0000 C   0  0  0  0  0  0  0  0  0  0  0  0
   13.0900   -0.0834    0.0000 C   0  0  0  0  0  0  0  0  0  0  0  0
   11.1595    4.4101    0.0000 C   0  0  0  0  0  0  0  0  0  0  0  0
   10.0105    5.3743    0.0000 C   0  0  0  0  0  0  0  0  0  0  0  0
    5.2500    3.8971    0.0000 C   0  0  0  0  0  0  0  0  0  0  0  0
    3.7500    3.8971    0.0000 C   0  0  0  0  0  0  0  0  0  0  0  0
    3.0000    5.1962    0.0000 F   0  0  0  0  0  0  0  0  0  0  0  0
   -0.7500    1.2990    0.0000 C   0  0  0  0  0  0  0  0  0  0  0  0
   -1.5000    0.0000    0.0000 C   0  0  0  0  0  0  0  0  0  0  0  0
   -0.7500   -1.2990    0.0000 N   0  0  0  0  0  0  0  0  0  0  0  0
    1.5000   -5.1962    0.0000 C   0  0  0  0  0  0  0  0  0  0  0  0
    2.7990   -5.9462    0.0000 C   0  0  0  0  0  0  0  0  0  0  0  0
    1.5000   -6.6962    0.0000 C   0  0  0  0  0  0  0  0  0  0  0  0
  1  2  2  0
  2  3  1  0
  3  4  2  3
  4  5  1  0
  5  6  2  0
  6  7  1  0
  7  8  1  0
  8  9  2  0
  9 10  1  0
 10 11  1  0
 10 12  2  0
 12 13  1  0
 13 14  1  0
 14 15  2  0
 14 16  1  0
 16 17  1  0
 17 18  2  0
 17 19  1  0
 19 20  1  0
 20 21  2  0
 21 22  1  0
 22 23  2  0
 23 24  1  0
 23 25  1  0
 25 26  2  0
 16 27  1  0
 27 28  1  0
 12 29  1  0
 29 30  2  0
 30 31  1  0
  6 32  1  0
 32 33  2  0
 33 34  1  0
  2 35  1  0
 35 36  1  0
 36 37  1  0
 34  4  1  0
 37 35  1  0
 30  8  1  0
 28 16  1  0
 26 20  1  0
M  END
>  <Synonyms>  (370) 
ALTIRATINIB|DCC-2701|DP-5164

>  <Research Codes>  (370) 
DCC-2701|DP-5164

>  <Phase>  (370) 
1

>  <Applicants>  (370) 
nan

>  <USAN Stem>  (370) 
'-tinib'

>  <USAN Year>  (370) 
2014.0

>  <USAN Stem Definition>  (370) 
tyrosine kinase inhibitors

>  <USAN Stem Substem>  (370) 
'-tinib(-tinib)'

>  <First Approval>  (370) 
nan

>  <ATC Codes>  (370) 
nan

>  <Level 4 ATC Codes>  (370) 
nan

>  <Level 3 ATC Codes>  (370) 
nan

>  <Level 2 ATC Codes>  (370) 
nan

>  <Level 1 ATC Codes>  (370) 
nan

>  <Indication Class>  (370) 
nan

>  <Patent>  (370) 
nan

>  <Drug Type>  (370) 
1:Synthetic Small Molecule

>  <Passes Rule of Five>  (370) 
False

>  <First In Class>  (370) 
False

>  <Chirality>  (370) 
Achiral Molecule

>  <Prodrug>  (370) 
False

>  <Oral>  (370) 
False

>  <Parenteral>  (370) 
False

>  <Topical>  (370) 
False

>  <Black Box>  (370) 
False

>  <Availability Type>  (370) 
Unknown

>  <Withdrawn Year>  (370) 
nan

>  <Withdrawn Reason>  (370) 
nan

>  <Withdrawn Country>  (370) 
nan

>  <Withdrawn Class>  (370) 
nan

>  <SMILES>  (370) 
O=C(Nc1cc(Oc2cc(F)c(NC(=O)C3(C(=O)Nc4ccc(F)cc4)CC3)cc2F)ccn1)C1CC1

>  <InChi Key>  (370) 
GNNDEPIMDAZHRQ-UHFFFAOYSA-N

$$$$
CHEMBL3747513
     RDKit          2D

 31 35  0  0  0  0  0  0  0  0999 V2000
   -3.9955   -4.2382    0.0000 C   0  0  0  0  0  0  0  0  0  0  0  0
   -2.9918   -5.3529    0.0000 C   0  0  0  0  0  0  0  0  0  0  0  0
   -3.3037   -6.8202    0.0000 C   0  0  0  0  0  0  0  0  0  0  0  0
   -2.0046   -7.5702    0.0000 C   0  0  0  0  0  0  0  0  0  0  0  0
   -1.6927   -9.0374    0.0000 C   0  0  0  0  0  0  0  0  0  0  0  0
   -2.8075  -10.0411    0.0000 C   0  0  0  0  0  0  0  0  0  0  0  0
   -2.4956  -11.5083    0.0000 N   0  0  0  0  0  0  0  0  0  0  0  0
   -4.2340   -9.5776    0.0000 O   0  0  0  0  0  0  0  0  0  0  0  0
   -0.2662   -9.5009    0.0000 C   0  0  0  0  0  0  0  0  0  0  0  0
    0.8486   -8.4972    0.0000 C   0  0  0  0  0  0  0  0  0  0  0  0
    0.5367   -7.0300    0.0000 C   0  0  0  0  0  0  0  0  0  0  0  0
   -0.8899   -6.5665    0.0000 C   0  0  0  0  0  0  0  0  0  0  0  0
   -1.5000   -5.1962    0.0000 N   0  0  0  0  0  0  0  0  0  0  0  0
   -0.7500   -3.8971    0.0000 C   0  0  0  0  0  0  0  0  0  0  0  0
   -1.5000   -2.5981    0.0000 N   0  0  0  0  0  0  0  0  0  0  0  0
   -0.7500   -1.2990    0.0000 C   0  0  0  0  0  0  0  0  0  0  0  0
    0.7500   -1.2990    0.0000 C   0  0  0  0  0  0  0  0  0  0  0  0
    1.5000   -2.5981    0.0000 C   0  0  0  0  0  0  0  0  0  0  0  0
    3.0000   -2.5981    0.0000 N   0  0  0  0  0  0  0  0  0  0  0  0
    3.7500   -3.8971    0.0000 C   0  0  0  0  0  0  0  0  0  0  0  0
    5.2500   -3.8971    0.0000 C   0  0  0  0  0  0  0  0  0  0  0  0
    6.0000   -5.1962    0.0000 C   0  0  0  0  0  0  0  0  0  0  0  0
    7.5000   -5.1962    0.0000 C   0  0  0  0  0  0  0  0  0  0  0  0
    8.2500   -3.8971    0.0000 C   0  0  0  0  0  0  0  0  0  0  0  0
    7.5000   -2.5981    0.0000 C   0  0  0  0  0  0  0  0  0  0  0  0
    6.0000   -2.5981    0.0000 C   0  0  0  0  0  0  0  0  0  0  0  0
    0.7500   -3.8971    0.0000 N   0  0  0  0  0  0  0  0  0  0  0  0
    1.5000    0.0000    0.0000 C   0  0  0  0  0  0  0  0  0  0  0  0
    0.7500    1.2990    0.0000 O   0  0  0  0  0  0  0  0  0  0  0  0
   -0.7500    1.2990    0.0000 C   0  0  0  0  0  0  0  0  0  0  0  0
   -1.5000    0.0000    0.0000 C   0  0  0  0  0  0  0  0  0  0  0  0
  1  2  1  0
  2  3  2  0
  3  4  1  0
  4  5  2  0
  5  6  1  0
  6  7  1  0
  6  8  2  0
  5  9  1  0
  9 10  2  0
 10 11  1  0
 11 12  2  0
 12 13  1  0
 13 14  1  0
 14 15  1  0
 15 16  1  0
 16 17  2  0
 17 18  1  0
 18 19  2  3
 19 20  1  0
 20 21  1  0
 21 22  2  0
 22 23  1  0
 23 24  2  0
 24 25  1  0
 25 26  2  0
 18 27  1  0
 17 28  1  0
 28 29  1  0
 29 30  1  0
 30 31  1  0
 13  2  1  0
 27 14  2  0
 12  4  1  0
 31 16  1  0
 26 21  1  0
M  END
>  <Synonyms>  (371) 
CB 5083|CB-5083

>  <Research Codes>  (371) 
nan

>  <Phase>  (371) 
1

>  <Applicants>  (371) 
nan

>  <USAN Stem>  (371) 
nan

>  <USAN Year>  (371) 
nan

>  <USAN Stem Definition>  (371) 
nan

>  <USAN Stem Substem>  (371) 
nan

>  <First Approval>  (371) 
nan

>  <ATC Codes>  (371) 
nan

>  <Level 4 ATC Codes>  (371) 
nan

>  <Level 3 ATC Codes>  (371) 
nan

>  <Level 2 ATC Codes>  (371) 
nan

>  <Level 1 ATC Codes>  (371) 
nan

>  <Indication Class>  (371) 
nan

>  <Patent>  (371) 
nan

>  <Drug Type>  (371) 
1:Synthetic Small Molecule

>  <Passes Rule of Five>  (371) 
True

>  <First In Class>  (371) 
False

>  <Chirality>  (371) 
Achiral Molecule

>  <Prodrug>  (371) 
False

>  <Oral>  (371) 
False

>  <Parenteral>  (371) 
False

>  <Topical>  (371) 
False

>  <Black Box>  (371) 
False

>  <Availability Type>  (371) 
Unknown

>  <Withdrawn Year>  (371) 
nan

>  <Withdrawn Reason>  (371) 
nan

>  <Withdrawn Country>  (371) 
nan

>  <Withdrawn Class>  (371) 
nan

>  <SMILES>  (371) 
Cc1cc2c(C(N)=O)cccc2n1-c1nc2c(c(NCc3ccccc3)n1)COCC2

>  <InChi Key>  (371) 
RDALZZCKQFLGJP-UHFFFAOYSA-N

$$$$
CHEMBL3544960
     RDKit          2D

 22 24  0  0  0  0  0  0  0  0999 V2000
    4.0981   -2.5981    0.0000 N   0  0  0  0  0  0  0  0  0  0  0  0
    2.7990   -1.8481    0.0000 C   0  0  0  0  0  0  0  0  0  0  0  0
    1.5000   -2.5981    0.0000 C   0  0  0  0  0  0  0  0  0  0  0  0
    0.2010   -3.3481    0.0000 O   0  0  0  0  0  0  0  0  0  0  0  0
    0.7500   -1.2990    0.0000 C   0  0  0  0  0  0  0  0  0  0  0  0
    1.5000    0.0000    0.0000 C   0  0  0  0  0  0  0  0  0  0  0  0
    0.7500    1.2990    0.0000 C   0  0  0  0  0  0  0  0  0  0  0  0
   -0.7500    1.2990    0.0000 C   0  0  0  0  0  0  0  0  0  0  0  0
   -1.5000    2.5981    0.0000 Cl  0  0  0  0  0  0  0  0  0  0  0  0
   -1.5000    0.0000    0.0000 C   0  0  0  0  0  0  0  0  0  0  0  0
   -0.7500   -1.2990    0.0000 C   0  0  0  0  0  0  0  0  0  0  0  0
    2.2500   -3.8971    0.0000 C   0  0  0  0  0  0  0  0  0  0  0  0
    1.5000   -5.1962    0.0000 C   0  0  0  0  0  0  0  0  0  0  0  0
    2.2500   -6.4952    0.0000 C   0  0  0  0  0  0  0  0  0  0  0  0
    3.7500   -6.4952    0.0000 C   0  0  0  0  0  0  0  0  0  0  0  0
    4.5000   -7.7942    0.0000 C   0  0  0  0  0  0  0  0  0  0  0  0
    5.9918   -7.9510    0.0000 C   0  0  0  0  0  0  0  0  0  0  0  0
    6.3037   -9.4182    0.0000 N   0  0  0  0  0  0  0  0  0  0  0  0
    5.0046  -10.1682    0.0000 N   0  0  0  0  0  0  0  0  0  0  0  0
    3.8899   -9.1645    0.0000 C   0  0  0  0  0  0  0  0  0  0  0  0
    4.5000   -5.1962    0.0000 C   0  0  0  0  0  0  0  0  0  0  0  0
    3.7500   -3.8971    0.0000 C   0  0  0  0  0  0  0  0  0  0  0  0
  1  2  1  0
  2  3  1  0
  3  4  1  1
  3  5  1  0
  5  6  2  0
  6  7  1  0
  7  8  2  0
  8  9  1  0
  8 10  1  0
 10 11  2  0
  3 12  1  0
 12 13  2  0
 13 14  1  0
 14 15  2  0
 15 16  1  0
 16 17  1  0
 17 18  2  0
 18 19  1  0
 19 20  1  0
 15 21  1  0
 21 22  2  0
 11  5  1  0
 22 12  1  0
 20 16  2  0
M  END
>  <Synonyms>  (372) 
AT-13148|AT13148

>  <Research Codes>  (372) 
AT13148

>  <Phase>  (372) 
1

>  <Applicants>  (372) 
nan

>  <USAN Stem>  (372) 
nan

>  <USAN Year>  (372) 
nan

>  <USAN Stem Definition>  (372) 
nan

>  <USAN Stem Substem>  (372) 
nan

>  <First Approval>  (372) 
nan

>  <ATC Codes>  (372) 
nan

>  <Level 4 ATC Codes>  (372) 
nan

>  <Level 3 ATC Codes>  (372) 
nan

>  <Level 2 ATC Codes>  (372) 
nan

>  <Level 1 ATC Codes>  (372) 
nan

>  <Indication Class>  (372) 
nan

>  <Patent>  (372) 
nan

>  <Drug Type>  (372) 
1:Synthetic Small Molecule

>  <Passes Rule of Five>  (372) 
True

>  <First In Class>  (372) 
False

>  <Chirality>  (372) 
Single Stereoisomer

>  <Prodrug>  (372) 
False

>  <Oral>  (372) 
False

>  <Parenteral>  (372) 
False

>  <Topical>  (372) 
False

>  <Black Box>  (372) 
False

>  <Availability Type>  (372) 
Unknown

>  <Withdrawn Year>  (372) 
nan

>  <Withdrawn Reason>  (372) 
nan

>  <Withdrawn Country>  (372) 
nan

>  <Withdrawn Class>  (372) 
nan

>  <SMILES>  (372) 
NC[C@@](O)(c1ccc(Cl)cc1)c1ccc(-c2cn[nH]c2)cc1

>  <InChi Key>  (372) 
IIRWNGPLJQXWFJ-KRWDZBQOSA-N

$$$$
CHEMBL253978
     RDKit          2D

 26 29  0  0  0  0  0  0  0  0999 V2000
    3.8745   -4.8170    0.0000 C   0  0  0  0  0  0  0  0  0  0  0  0
    2.3880   -5.0184    0.0000 C   0  0  0  0  0  0  0  0  0  0  0  0
    1.6772   -6.3393    0.0000 S   0  0  0  0  0  0  0  0  0  0  0  0
    0.2013   -6.0714    0.0000 C   0  0  0  0  0  0  0  0  0  0  0  0
    0.0000   -4.5850    0.0000 C   0  0  0  0  0  0  0  0  0  0  0  0
    1.3515   -3.9342    0.0000 C   0  0  0  0  0  0  0  0  0  0  0  0
    1.6852   -2.4718    0.0000 N   0  0  0  0  0  0  0  0  0  0  0  0
    3.1476   -2.1380    0.0000 C   0  0  0  0  0  0  0  0  0  0  0  0
    4.1679   -3.2376    0.0000 O   0  0  0  0  0  0  0  0  0  0  0  0
    3.5898   -0.7046    0.0000 C   0  0  0  0  0  0  0  0  0  0  0  0
    5.0522   -0.3709    0.0000 N   0  0  0  0  0  0  0  0  0  0  0  0
    6.0724   -1.4704    0.0000 C   0  0  0  0  0  0  0  0  0  0  0  0
    7.5348   -1.1367    0.0000 C   0  0  0  0  0  0  0  0  0  0  0  0
    7.9769    0.2967    0.0000 N   0  0  0  0  0  0  0  0  0  0  0  0
    9.4393    0.6305    0.0000 C   0  0  0  0  0  0  0  0  0  0  0  0
    6.9567    1.3963    0.0000 C   0  0  0  0  0  0  0  0  0  0  0  0
    5.4943    1.0625    0.0000 C   0  0  0  0  0  0  0  0  0  0  0  0
    0.7500   -1.2990    0.0000 C   0  0  0  0  0  0  0  0  0  0  0  0
    1.5000    0.0000    0.0000 C   0  0  0  0  0  0  0  0  0  0  0  0
    0.7500    1.2990    0.0000 C   0  0  0  0  0  0  0  0  0  0  0  0
   -0.7500    1.2990    0.0000 C   0  0  0  0  0  0  0  0  0  0  0  0
   -1.5000    0.0000    0.0000 C   0  0  0  0  0  0  0  0  0  0  0  0
   -0.7500   -1.2990    0.0000 C   0  0  0  0  0  0  0  0  0  0  0  0
   -1.6852   -2.4718    0.0000 N   0  0  0  0  0  0  0  0  0  0  0  0
   -1.3515   -3.9342    0.0000 C   0  0  0  0  0  0  0  0  0  0  0  0
   -2.5242   -4.8694    0.0000 O   0  0  0  0  0  0  0  0  0  0  0  0
  1  2  1  0
  2  3  1  0
  3  4  1  0
  4  5  2  0
  5  6  1  0
  6  7  1  0
  7  8  1  0
  8  9  2  0
  8 10  1  0
 10 11  1  0
 11 12  1  0
 12 13  1  0
 13 14  1  0
 14 15  1  0
 14 16  1  0
 16 17  1  0
  7 18  1  0
 18 19  2  0
 19 20  1  0
 20 21  2  0
 21 22  1  0
 22 23  2  0
 23 24  1  0
 24 25  1  0
 25 26  2  0
  6  2  2  0
 17 11  1  0
 23 18  1  0
 25  5  1  0
M  END
>  <Synonyms>  (373) 
TELENZEPINE

>  <Research Codes>  (373) 
nan

>  <Phase>  (373) 
1

>  <Applicants>  (373) 
nan

>  <USAN Stem>  (373) 
'-pine'

>  <USAN Year>  (373) 
nan

>  <USAN Stem Definition>  (373) 
tricyclic compounds

>  <USAN Stem Substem>  (373) 
'-pine(-pine)'

>  <First Approval>  (373) 
nan

>  <ATC Codes>  (373) 
nan

>  <Level 4 ATC Codes>  (373) 
nan

>  <Level 3 ATC Codes>  (373) 
nan

>  <Level 2 ATC Codes>  (373) 
nan

>  <Level 1 ATC Codes>  (373) 
nan

>  <Indication Class>  (373) 
nan

>  <Patent>  (373) 
nan

>  <Drug Type>  (373) 
1:Synthetic Small Molecule

>  <Passes Rule of Five>  (373) 
True

>  <First In Class>  (373) 
False

>  <Chirality>  (373) 
Achiral Molecule

>  <Prodrug>  (373) 
False

>  <Oral>  (373) 
False

>  <Parenteral>  (373) 
False

>  <Topical>  (373) 
False

>  <Black Box>  (373) 
False

>  <Availability Type>  (373) 
Unknown

>  <Withdrawn Year>  (373) 
nan

>  <Withdrawn Reason>  (373) 
nan

>  <Withdrawn Country>  (373) 
nan

>  <Withdrawn Class>  (373) 
nan

>  <SMILES>  (373) 
Cc1scc2c1N(C(=O)CN1CCN(C)CC1)c1ccccc1NC2=O

>  <InChi Key>  (373) 
VSWPGAIWKHPTKX-UHFFFAOYSA-N

$$$$
CHEMBL3133037
     RDKit          2D

 32 35  0  0  0  0  0  0  0  0999 V2000
    3.0000    0.0000    0.0000 C   0  0  0  0  0  0  0  0  0  0  0  0
    1.5000    0.0000    0.0000 C   0  0  0  0  0  0  0  0  0  0  0  0
    0.7500   -1.2990    0.0000 C   0  0  0  0  0  0  0  0  0  0  0  0
    1.5000   -2.5981    0.0000 C   0  0  0  0  0  0  0  0  0  0  0  0
    0.7500   -3.8971    0.0000 C   0  0  0  0  0  0  0  0  0  0  0  0
   -0.7500   -3.8971    0.0000 C   0  0  0  0  0  0  0  0  0  0  0  0
   -1.5000   -5.1962    0.0000 C   0  0  0  0  0  0  0  0  0  0  0  0
   -0.7500   -6.4952    0.0000 C   0  0  0  0  0  0  0  0  0  0  0  0
    0.7500   -6.4952    0.0000 C   0  0  0  0  0  0  0  0  0  0  0  0
    1.5000   -5.1962    0.0000 C   0  0  0  0  0  0  0  0  0  0  0  0
   -0.7500   -1.2990    0.0000 N   0  0  0  0  0  0  0  0  0  0  0  0
   -1.5000    0.0000    0.0000 N   0  0  0  0  0  0  0  0  0  0  0  0
   -0.7500    1.2990    0.0000 C   0  0  0  0  0  0  0  0  0  0  0  0
   -1.5000    2.5981    0.0000 N   0  0  0  0  0  0  0  0  0  0  0  0
   -0.7500    3.8971    0.0000 C   0  0  0  0  0  0  0  0  0  0  0  0
   -1.5000    5.1962    0.0000 C   0  0  0  0  0  0  0  0  0  0  0  0
   -3.0000    5.1962    0.0000 N   0  0  0  0  0  0  0  0  0  0  0  0
   -3.7500    6.4952    0.0000 C   0  0  0  0  0  0  0  0  0  0  0  0
   -3.0000    7.7942    0.0000 C   0  0  0  0  0  0  0  0  0  0  0  0
   -3.7500    9.0933    0.0000 N   0  0  0  0  0  0  0  0  0  0  0  0
   -5.2500    9.0933    0.0000 C   0  0  0  0  0  0  0  0  0  0  0  0
   -6.0000   10.3923    0.0000 C   0  0  0  0  0  0  0  0  0  0  0  0
   -7.2990    9.6423    0.0000 C   0  0  0  0  0  0  0  0  0  0  0  0
   -4.7010   11.1423    0.0000 C   0  0  0  0  0  0  0  0  0  0  0  0
   -6.7500   11.6913    0.0000 O   0  0  0  0  0  0  0  0  0  0  0  0
   -6.0000    7.7942    0.0000 C   0  0  0  0  0  0  0  0  0  0  0  0
   -5.2500    6.4952    0.0000 N   0  0  0  0  0  0  0  0  0  0  0  0
   -3.7500    3.8971    0.0000 C   0  0  0  0  0  0  0  0  0  0  0  0
   -5.2500    3.8971    0.0000 C   0  0  0  0  0  0  0  0  0  0  0  0
   -3.0000    2.5981    0.0000 C   0  0  0  0  0  0  0  0  0  0  0  0
    0.7500    1.2990    0.0000 C   0  0  0  0  0  0  0  0  0  0  0  0
    1.5000    2.5981    0.0000 C   0  0  0  0  0  0  0  0  0  0  0  0
  1  2  1  0
  2  3  2  0
  3  4  1  0
  4  5  1  0
  5  6  2  0
  6  7  1  0
  7  8  2  0
  8  9  1  0
  9 10  2  0
  3 11  1  0
 11 12  2  0
 12 13  1  0
 13 14  1  0
 14 15  1  0
 15 16  1  0
 16 17  1  0
 17 18  1  0
 18 19  2  0
 19 20  1  0
 20 21  2  0
 21 22  1  0
 22 23  1  0
 22 24  1  0
 22 25  1  0
 21 26  1  0
 26 27  2  0
 17 28  1  0
 28 29  1  1
 28 30  1  0
 13 31  2  0
 31 32  1  0
 31  2  1  0
 10  5  1  0
 30 14  1  0
 27 18  1  0
M  END
>  <Synonyms>  (374) 
LEQ 506|LEQ506|NVP-LEQ506

>  <Research Codes>  (374) 
LEQ-506|NVP-LEQ506

>  <Phase>  (374) 
1

>  <Applicants>  (374) 
nan

>  <USAN Stem>  (374) 
nan

>  <USAN Year>  (374) 
nan

>  <USAN Stem Definition>  (374) 
nan

>  <USAN Stem Substem>  (374) 
nan

>  <First Approval>  (374) 
nan

>  <ATC Codes>  (374) 
nan

>  <Level 4 ATC Codes>  (374) 
nan

>  <Level 3 ATC Codes>  (374) 
nan

>  <Level 2 ATC Codes>  (374) 
nan

>  <Level 1 ATC Codes>  (374) 
nan

>  <Indication Class>  (374) 
nan

>  <Patent>  (374) 
nan

>  <Drug Type>  (374) 
1:Synthetic Small Molecule

>  <Passes Rule of Five>  (374) 
True

>  <First In Class>  (374) 
False

>  <Chirality>  (374) 
Single Stereoisomer

>  <Prodrug>  (374) 
False

>  <Oral>  (374) 
False

>  <Parenteral>  (374) 
False

>  <Topical>  (374) 
False

>  <Black Box>  (374) 
False

>  <Availability Type>  (374) 
Unknown

>  <Withdrawn Year>  (374) 
nan

>  <Withdrawn Reason>  (374) 
nan

>  <Withdrawn Country>  (374) 
nan

>  <Withdrawn Class>  (374) 
nan

>  <SMILES>  (374) 
Cc1c(Cc2ccccc2)nnc(N2CCN(c3cnc(C(C)(C)O)cn3)[C@H](C)C2)c1C

>  <InChi Key>  (374) 
POERAARDVFVDLO-QGZVFWFLSA-N

$$$$
CHEMBL43185
     RDKit          2D

 21 23  0  0  0  0  0  0  0  0999 V2000
   -0.2758   10.5570    0.0000 O   0  0  0  0  0  0  0  0  0  0  0  0
   -1.7024   10.0935    0.0000 C   0  0  0  0  0  0  0  0  0  0  0  0
   -2.0143    8.6263    0.0000 C   0  0  0  0  0  0  0  0  0  0  0  0
   -0.8995    7.6226    0.0000 C   0  0  0  0  0  0  0  0  0  0  0  0
   -1.2114    6.1554    0.0000 C   0  0  0  0  0  0  0  0  0  0  0  0
   -0.0967    5.1517    0.0000 C   0  0  0  0  0  0  0  0  0  0  0  0
   -0.4086    3.6844    0.0000 C   0  0  0  0  0  0  0  0  0  0  0  0
   -1.8351    3.2209    0.0000 C   0  0  0  0  0  0  0  0  0  0  0  0
   -2.1470    1.7537    0.0000 C   0  0  0  0  0  0  0  0  0  0  0  0
   -1.0323    0.7500    0.0000 C   0  0  0  0  0  0  0  0  0  0  0  0
    0.3943    1.2135    0.0000 C   0  0  0  0  0  0  0  0  0  0  0  0
    0.7062    2.6807    0.0000 C   0  0  0  0  0  0  0  0  0  0  0  0
    1.2760    0.0000    0.0000 O   0  0  0  0  0  0  0  0  0  0  0  0
    0.3943   -1.2135    0.0000 C   0  0  0  0  0  0  0  0  0  0  0  0
   -1.0323   -0.7500    0.0000 O   0  0  0  0  0  0  0  0  0  0  0  0
   -2.8171   11.0972    0.0000 N   0  0  0  0  0  0  0  0  0  0  0  0
   -2.5052   12.5644    0.0000 C   0  0  0  0  0  0  0  0  0  0  0  0
   -3.6200   13.5681    0.0000 C   0  0  0  0  0  0  0  0  0  0  0  0
   -5.0465   13.1046    0.0000 C   0  0  0  0  0  0  0  0  0  0  0  0
   -5.3584   11.6374    0.0000 C   0  0  0  0  0  0  0  0  0  0  0  0
   -4.2437   10.6337    0.0000 C   0  0  0  0  0  0  0  0  0  0  0  0
  1  2  2  0
  2  3  1  0
  3  4  2  0
  4  5  1  0
  5  6  2  0
  6  7  1  0
  7  8  2  0
  8  9  1  0
  9 10  2  0
 10 11  1  0
 11 12  2  0
 11 13  1  0
 13 14  1  0
 14 15  1  0
  2 16  1  0
 16 17  1  0
 17 18  1  0
 18 19  1  0
 19 20  1  0
 20 21  1  0
 12  7  1  0
 21 16  1  0
 15 10  1  0
M  END
>  <Synonyms>  (375) 
FEMA NO. 2909|NSC-21727|PIPERINE

>  <Research Codes>  (375) 
FEMA NO. 2909|NSC-21727

>  <Phase>  (375) 
1

>  <Applicants>  (375) 
nan

>  <USAN Stem>  (375) 
nan

>  <USAN Year>  (375) 
nan

>  <USAN Stem Definition>  (375) 
nan

>  <USAN Stem Substem>  (375) 
nan

>  <First Approval>  (375) 
nan

>  <ATC Codes>  (375) 
nan

>  <Level 4 ATC Codes>  (375) 
nan

>  <Level 3 ATC Codes>  (375) 
nan

>  <Level 2 ATC Codes>  (375) 
nan

>  <Level 1 ATC Codes>  (375) 
nan

>  <Indication Class>  (375) 
nan

>  <Patent>  (375) 
nan

>  <Drug Type>  (375) 
1:Synthetic Small Molecule

>  <Passes Rule of Five>  (375) 
True

>  <First In Class>  (375) 
False

>  <Chirality>  (375) 
Achiral Molecule

>  <Prodrug>  (375) 
False

>  <Oral>  (375) 
False

>  <Parenteral>  (375) 
False

>  <Topical>  (375) 
False

>  <Black Box>  (375) 
False

>  <Availability Type>  (375) 
Unknown

>  <Withdrawn Year>  (375) 
nan

>  <Withdrawn Reason>  (375) 
nan

>  <Withdrawn Country>  (375) 
nan

>  <Withdrawn Class>  (375) 
nan

>  <SMILES>  (375) 
O=C(/C=C/C=C/c1ccc2c(c1)OCO2)N1CCCCC1

>  <InChi Key>  (375) 
MXXWOMGUGJBKIW-YPCIICBESA-N

$$$$
CHEMBL1650595
     RDKit          2D

 34 38  0  0  0  0  0  0  0  0999 V2000
    5.1233  -12.2780    0.0000 N   0  0  0  0  0  0  0  0  0  0  0  0
    4.6597  -10.8514    0.0000 C   0  0  0  0  0  0  0  0  0  0  0  0
    3.1925  -10.5396    0.0000 C   0  0  0  0  0  0  0  0  0  0  0  0
    2.1888  -11.6543    0.0000 O   0  0  0  0  0  0  0  0  0  0  0  0
    2.7290   -9.1130    0.0000 N   0  0  0  0  0  0  0  0  0  0  0  0
    1.2618   -8.8011    0.0000 C   0  0  0  0  0  0  0  0  0  0  0  0
    0.2581   -9.9158    0.0000 C   0  0  0  0  0  0  0  0  0  0  0  0
   -1.2091   -9.6040    0.0000 C   0  0  0  0  0  0  0  0  0  0  0  0
   -1.6727   -8.1774    0.0000 C   0  0  0  0  0  0  0  0  0  0  0  0
   -3.1399   -7.8655    0.0000 N   0  0  0  0  0  0  0  0  0  0  0  0
   -4.2546   -8.8692    0.0000 N   0  0  0  0  0  0  0  0  0  0  0  0
   -5.5537   -8.1192    0.0000 C   0  0  0  0  0  0  0  0  0  0  0  0
   -6.9240   -8.7293    0.0000 C   0  0  0  0  0  0  0  0  0  0  0  0
   -8.2943   -9.3394    0.0000 F   0  0  0  0  0  0  0  0  0  0  0  0
   -7.5341   -7.3590    0.0000 F   0  0  0  0  0  0  0  0  0  0  0  0
   -6.3139  -10.0996    0.0000 F   0  0  0  0  0  0  0  0  0  0  0  0
   -5.2418   -6.6520    0.0000 C   0  0  0  0  0  0  0  0  0  0  0  0
   -3.7500   -6.4952    0.0000 C   0  0  0  0  0  0  0  0  0  0  0  0
   -3.0000   -5.1962    0.0000 C   0  0  0  0  0  0  0  0  0  0  0  0
   -3.7500   -3.8971    0.0000 C   0  0  0  0  0  0  0  0  0  0  0  0
   -3.0000   -2.5981    0.0000 C   0  0  0  0  0  0  0  0  0  0  0  0
   -1.5000   -2.5981    0.0000 C   0  0  0  0  0  0  0  0  0  0  0  0
   -0.7500   -3.8971    0.0000 C   0  0  0  0  0  0  0  0  0  0  0  0
    0.7500   -3.8971    0.0000 C   0  0  0  0  0  0  0  0  0  0  0  0
    1.5000   -2.5981    0.0000 C   0  0  0  0  0  0  0  0  0  0  0  0
    0.7500   -1.2990    0.0000 C   0  0  0  0  0  0  0  0  0  0  0  0
    1.5000    0.0000    0.0000 C   0  0  0  0  0  0  0  0  0  0  0  0
    0.7500    1.2990    0.0000 C   0  0  0  0  0  0  0  0  0  0  0  0
   -0.7500    1.2990    0.0000 C   0  0  0  0  0  0  0  0  0  0  0  0
   -1.5000    0.0000    0.0000 C   0  0  0  0  0  0  0  0  0  0  0  0
   -0.7500   -1.2990    0.0000 C   0  0  0  0  0  0  0  0  0  0  0  0
   -1.5000   -5.1962    0.0000 C   0  0  0  0  0  0  0  0  0  0  0  0
   -0.6690   -7.0627    0.0000 C   0  0  0  0  0  0  0  0  0  0  0  0
    0.7982   -7.3745    0.0000 C   0  0  0  0  0  0  0  0  0  0  0  0
  1  2  1  0
  2  3  1  0
  3  4  2  0
  3  5  1  0
  5  6  1  0
  6  7  2  0
  7  8  1  0
  8  9  2  0
  9 10  1  0
 10 11  1  0
 11 12  2  0
 12 13  1  0
 13 14  1  0
 13 15  1  0
 13 16  1  0
 12 17  1  0
 17 18  2  0
 18 19  1  0
 19 20  2  0
 20 21  1  0
 21 22  2  0
 22 23  1  0
 23 24  1  0
 24 25  2  0
 25 26  1  0
 26 27  2  0
 27 28  1  0
 28 29  2  0
 29 30  1  0
 30 31  2  0
 23 32  2  0
  9 33  1  0
 33 34  2  0
 34  6  1  0
 18 10  1  0
 32 19  1  0
 31 22  1  0
 31 26  1  0
M  END
>  <Synonyms>  (376) 
AR-12|OSU-03012

>  <Research Codes>  (376) 
AR-12|OSU-03012

>  <Phase>  (376) 
1

>  <Applicants>  (376) 
nan

>  <USAN Stem>  (376) 
nan

>  <USAN Year>  (376) 
nan

>  <USAN Stem Definition>  (376) 
nan

>  <USAN Stem Substem>  (376) 
nan

>  <First Approval>  (376) 
nan

>  <ATC Codes>  (376) 
nan

>  <Level 4 ATC Codes>  (376) 
nan

>  <Level 3 ATC Codes>  (376) 
nan

>  <Level 2 ATC Codes>  (376) 
nan

>  <Level 1 ATC Codes>  (376) 
nan

>  <Indication Class>  (376) 
nan

>  <Patent>  (376) 
nan

>  <Drug Type>  (376) 
1:Synthetic Small Molecule

>  <Passes Rule of Five>  (376) 
False

>  <First In Class>  (376) 
False

>  <Chirality>  (376) 
Achiral Molecule

>  <Prodrug>  (376) 
False

>  <Oral>  (376) 
False

>  <Parenteral>  (376) 
False

>  <Topical>  (376) 
False

>  <Black Box>  (376) 
False

>  <Availability Type>  (376) 
Unknown

>  <Withdrawn Year>  (376) 
nan

>  <Withdrawn Reason>  (376) 
nan

>  <Withdrawn Country>  (376) 
nan

>  <Withdrawn Class>  (376) 
nan

>  <SMILES>  (376) 
NCC(=O)Nc1ccc(-n2nc(C(F)(F)F)cc2-c2ccc3c(ccc4ccccc43)c2)cc1

>  <InChi Key>  (376) 
YULUCECVQOCQFQ-UHFFFAOYSA-N

$$$$
CHEMBL3545076
     RDKit          2D

 32 36  0  0  0  0  0  0  0  0999 V2000
   -9.0669    2.2813    0.0000 C   0  0  0  0  0  0  0  0  0  0  0  0
   -9.0669    0.7813    0.0000 N   0  0  0  0  0  0  0  0  0  0  0  0
  -10.2804   -0.1004    0.0000 C   0  0  0  0  0  0  0  0  0  0  0  0
   -9.8169   -1.5270    0.0000 C   0  0  0  0  0  0  0  0  0  0  0  0
  -10.6985   -2.7405    0.0000 C   0  0  0  0  0  0  0  0  0  0  0  0
  -12.1903   -2.5837    0.0000 C   0  0  0  0  0  0  0  0  0  0  0  0
  -13.0720   -3.7972    0.0000 C   0  0  0  0  0  0  0  0  0  0  0  0
  -12.4619   -5.1676    0.0000 C   0  0  0  0  0  0  0  0  0  0  0  0
  -13.3436   -6.3811    0.0000 F   0  0  0  0  0  0  0  0  0  0  0  0
  -10.9701   -5.3244    0.0000 C   0  0  0  0  0  0  0  0  0  0  0  0
  -10.3600   -6.6947    0.0000 C   0  0  0  0  0  0  0  0  0  0  0  0
   -9.7499   -8.0650    0.0000 F   0  0  0  0  0  0  0  0  0  0  0  0
   -8.9897   -6.0846    0.0000 F   0  0  0  0  0  0  0  0  0  0  0  0
  -11.7303   -7.3048    0.0000 F   0  0  0  0  0  0  0  0  0  0  0  0
  -10.0884   -4.1108    0.0000 C   0  0  0  0  0  0  0  0  0  0  0  0
   -8.3169   -1.5270    0.0000 N   0  0  0  0  0  0  0  0  0  0  0  0
   -7.8533   -0.1004    0.0000 C   0  0  0  0  0  0  0  0  0  0  0  0
   -6.4268    0.3631    0.0000 C   0  0  0  0  0  0  0  0  0  0  0  0
   -5.3120   -0.6406    0.0000 C   0  0  0  0  0  0  0  0  0  0  0  0
   -3.8855   -0.1771    0.0000 C   0  0  0  0  0  0  0  0  0  0  0  0
   -3.5736    1.2902    0.0000 N   0  0  0  0  0  0  0  0  0  0  0  0
   -2.1470    1.7537    0.0000 C   0  0  0  0  0  0  0  0  0  0  0  0
   -1.8351    3.2209    0.0000 N   0  0  0  0  0  0  0  0  0  0  0  0
   -0.4086    3.6844    0.0000 C   0  0  0  0  0  0  0  0  0  0  0  0
    0.7062    2.6807    0.0000 N   0  0  0  0  0  0  0  0  0  0  0  0
    0.3943    1.2135    0.0000 C   0  0  0  0  0  0  0  0  0  0  0  0
    1.2760    0.0000    0.0000 N   0  0  0  0  0  0  0  0  0  0  0  0
    0.3943   -1.2135    0.0000 N   0  0  0  0  0  0  0  0  0  0  0  0
   -1.0323   -0.7500    0.0000 C   0  0  0  0  0  0  0  0  0  0  0  0
   -1.0323    0.7500    0.0000 C   0  0  0  0  0  0  0  0  0  0  0  0
   -4.6883    2.2939    0.0000 C   0  0  0  0  0  0  0  0  0  0  0  0
   -6.1149    1.8303    0.0000 C   0  0  0  0  0  0  0  0  0  0  0  0
  1  2  1  0
  2  3  1  0
  3  4  2  0
  4  5  1  0
  5  6  2  0
  6  7  1  0
  7  8  2  0
  8  9  1  0
  8 10  1  0
 10 11  1  0
 11 12  1  0
 11 13  1  0
 11 14  1  0
 10 15  2  0
  4 16  1  0
 16 17  2  0
 17 18  1  0
 18 19  1  0
 19 20  1  0
 20 21  1  0
 21 22  1  0
 22 23  2  0
 23 24  1  0
 24 25  2  0
 25 26  1  0
 26 27  1  0
 27 28  1  0
 28 29  2  0
 29 30  1  0
 21 31  1  0
 31 32  1  0
 17  2  1  0
 32 18  1  0
 15  5  1  0
 30 22  1  0
 30 26  2  0
M  END
>  <Synonyms>  (377) 
LY 2584702|LY-2584702|LY2584702

>  <Research Codes>  (377) 
LY 2584702|LY2584702

>  <Phase>  (377) 
1

>  <Applicants>  (377) 
nan

>  <USAN Stem>  (377) 
nan

>  <USAN Year>  (377) 
nan

>  <USAN Stem Definition>  (377) 
nan

>  <USAN Stem Substem>  (377) 
nan

>  <First Approval>  (377) 
nan

>  <ATC Codes>  (377) 
nan

>  <Level 4 ATC Codes>  (377) 
nan

>  <Level 3 ATC Codes>  (377) 
nan

>  <Level 2 ATC Codes>  (377) 
nan

>  <Level 1 ATC Codes>  (377) 
nan

>  <Indication Class>  (377) 
nan

>  <Patent>  (377) 
nan

>  <Drug Type>  (377) 
1:Synthetic Small Molecule

>  <Passes Rule of Five>  (377) 
True

>  <First In Class>  (377) 
False

>  <Chirality>  (377) 
Achiral Molecule

>  <Prodrug>  (377) 
False

>  <Oral>  (377) 
False

>  <Parenteral>  (377) 
False

>  <Topical>  (377) 
False

>  <Black Box>  (377) 
False

>  <Availability Type>  (377) 
Unknown

>  <Withdrawn Year>  (377) 
nan

>  <Withdrawn Reason>  (377) 
nan

>  <Withdrawn Country>  (377) 
nan

>  <Withdrawn Class>  (377) 
nan

>  <SMILES>  (377) 
Cn1cc(-c2ccc(F)c(C(F)(F)F)c2)nc1C1CCN(c2ncnc3[nH]ncc23)CC1

>  <InChi Key>  (377) 
FYXRSVDHGLUMHB-UHFFFAOYSA-N

$$$$
CHEMBL62382
     RDKit          2D

  8  7  0  0  0  0  0  0  0  0999 V2000
    0.0000    0.0000    0.0000 C   0  0  0  0  0  0  0  0  0  0  0  0
    1.2990    0.7500    0.0000 Se  0  0  0  0  0  2  0  0  0  0  0  0
    2.5981   -0.0000    0.0000 C   0  0  0  0  0  0  0  0  0  0  0  0
    3.8971    0.7500    0.0000 C   0  0  0  0  0  0  0  0  0  0  0  0
    3.8971    2.2500    0.0000 N   0  0  0  0  0  0  0  0  0  0  0  0
    5.1962   -0.0000    0.0000 C   0  0  0  0  0  0  0  0  0  0  0  0
    6.4952    0.7500    0.0000 O   0  0  0  0  0  0  0  0  0  0  0  0
    5.1962   -1.5000    0.0000 O   0  0  0  0  0  0  0  0  0  0  0  0
  1  2  1  0
  2  3  1  0
  3  4  1  0
  4  5  1  0
  4  6  1  0
  6  7  2  0
  6  8  1  0
M  END
>  <Synonyms>  (378) 
Methylselenocysteine|Se-Methylselenocysteine

>  <Research Codes>  (378) 
nan

>  <Phase>  (378) 
1

>  <Applicants>  (378) 
nan

>  <USAN Stem>  (378) 
nan

>  <USAN Year>  (378) 
nan

>  <USAN Stem Definition>  (378) 
nan

>  <USAN Stem Substem>  (378) 
nan

>  <First Approval>  (378) 
nan

>  <ATC Codes>  (378) 
nan

>  <Level 4 ATC Codes>  (378) 
nan

>  <Level 3 ATC Codes>  (378) 
nan

>  <Level 2 ATC Codes>  (378) 
nan

>  <Level 1 ATC Codes>  (378) 
nan

>  <Indication Class>  (378) 
nan

>  <Patent>  (378) 
nan

>  <Drug Type>  (378) 
1:Synthetic Small Molecule

>  <Passes Rule of Five>  (378) 
False

>  <First In Class>  (378) 
False

>  <Chirality>  (378) 
Single Stereoisomer

>  <Prodrug>  (378) 
False

>  <Oral>  (378) 
False

>  <Parenteral>  (378) 
False

>  <Topical>  (378) 
False

>  <Black Box>  (378) 
False

>  <Availability Type>  (378) 
Unknown

>  <Withdrawn Year>  (378) 
nan

>  <Withdrawn Reason>  (378) 
nan

>  <Withdrawn Country>  (378) 
nan

>  <Withdrawn Class>  (378) 
nan

>  <SMILES>  (378) 
C[Se]C[C@H](N)C(=O)O

>  <InChi Key>  (378) 
XDSSPSLGNGIIHP-UHFFFAOYSA-N

$$$$
CHEMBL3601398
     RDKit          2D

 47 52  0  0  0  0  0  0  0  0999 V2000
    3.7500   -1.2990    0.0000 C   0  0  0  0  0  0  0  0  0  0  0  0
    3.0000    0.0000    0.0000 O   0  0  0  0  0  0  0  0  0  0  0  0
    1.5000    0.0000    0.0000 C   0  0  0  0  0  0  0  0  0  0  0  0
    0.7500   -1.2990    0.0000 C   0  0  0  0  0  0  0  0  0  0  0  0
   -0.7500   -1.2990    0.0000 C   0  0  0  0  0  0  0  0  0  0  0  0
   -1.5000    0.0000    0.0000 C   0  0  0  0  0  0  0  0  0  0  0  0
   -0.7500    1.2990    0.0000 C   0  0  0  0  0  0  0  0  0  0  0  0
    0.7500    1.2990    0.0000 C   0  0  0  0  0  0  0  0  0  0  0  0
    1.5000    2.5981    0.0000 O   0  0  0  0  0  0  0  0  0  0  0  0
    0.7500    3.8971    0.0000 C   0  0  0  0  0  0  0  0  0  0  0  0
    1.5000    5.1962    0.0000 C   0  0  0  0  0  0  0  0  0  0  0  0
   -0.7500    3.8971    0.0000 C   0  0  0  0  0  0  0  0  0  0  0  0
   -3.0000    0.0000    0.0000 C   0  0  0  0  0  0  0  0  0  0  0  0
   -3.7500    1.2990    0.0000 C   0  0  0  0  0  0  0  0  0  0  0  0
   -3.0000    2.5981    0.0000 C   0  0  0  0  0  0  0  0  0  0  0  0
   -3.7500    3.8971    0.0000 C   0  0  0  0  0  0  0  0  0  0  0  0
   -5.2500    3.8971    0.0000 C   0  0  0  0  0  0  0  0  0  0  0  0
   -6.0000    5.1962    0.0000 Cl  0  0  0  0  0  0  0  0  0  0  0  0
   -6.0000    2.5981    0.0000 C   0  0  0  0  0  0  0  0  0  0  0  0
   -5.2500    1.2990    0.0000 C   0  0  0  0  0  0  0  0  0  0  0  0
   -3.7500   -1.2990    0.0000 N   0  0  0  0  0  0  0  0  0  0  0  0
   -5.2500   -1.2990    0.0000 C   0  0  0  0  0  0  0  0  0  0  0  0
   -6.0000    0.0000    0.0000 C   0  0  0  0  0  0  0  0  0  0  0  0
   -7.5000    0.0000    0.0000 C   0  0  0  0  0  0  0  0  0  0  0  0
   -8.2500   -1.2990    0.0000 C   0  0  0  0  0  0  0  0  0  0  0  0
   -9.7500   -1.2990    0.0000 N   0  0  0  0  0  0  0  0  0  0  0  0
  -10.5000    0.0000    0.0000 C   0  0  0  0  0  0  0  0  0  0  0  0
  -10.5000   -2.5981    0.0000 C   0  0  0  0  0  0  0  0  0  0  0  0
  -12.0000   -2.5981    0.0000 C   0  0  0  0  0  0  0  0  0  0  0  0
  -12.7500   -1.2990    0.0000 C   0  0  0  0  0  0  0  0  0  0  0  0
  -14.2500   -1.2990    0.0000 C   0  0  0  0  0  0  0  0  0  0  0  0
  -15.0000   -2.5981    0.0000 C   0  0  0  0  0  0  0  0  0  0  0  0
  -16.5000   -2.5981    0.0000 N   0  0  0  0  0  0  0  0  0  0  0  0
  -17.2500   -1.2990    0.0000 C   0  0  0  0  0  0  0  0  0  0  0  0
  -18.7500   -1.2990    0.0000 C   0  0  0  0  0  0  0  0  0  0  0  0
  -19.5000   -2.5981    0.0000 N   0  0  0  0  0  0  0  0  0  0  0  0
  -21.0000   -2.5981    0.0000 C   0  0  0  0  0  0  0  0  0  0  0  0
  -18.7500   -3.8971    0.0000 C   0  0  0  0  0  0  0  0  0  0  0  0
  -19.5000   -5.1962    0.0000 O   0  0  0  0  0  0  0  0  0  0  0  0
  -17.2500   -3.8971    0.0000 C   0  0  0  0  0  0  0  0  0  0  0  0
  -14.2500   -3.8971    0.0000 C   0  0  0  0  0  0  0  0  0  0  0  0
  -12.7500   -3.8971    0.0000 C   0  0  0  0  0  0  0  0  0  0  0  0
   -7.5000   -2.5981    0.0000 C   0  0  0  0  0  0  0  0  0  0  0  0
   -6.0000   -2.5981    0.0000 C   0  0  0  0  0  0  0  0  0  0  0  0
   -3.0000   -2.5981    0.0000 C   0  0  0  0  0  0  0  0  0  0  0  0
   -3.7500   -3.8971    0.0000 O   0  0  0  0  0  0  0  0  0  0  0  0
   -1.5000   -2.5981    0.0000 C   0  0  0  0  0  0  0  0  0  0  0  0
  1  2  1  0
  2  3  1  0
  3  4  2  0
  4  5  1  0
  5  6  2  0
  6  7  1  0
  7  8  2  0
  8  9  1  0
  9 10  1  0
 10 11  1  0
 10 12  1  0
  6 13  1  0
 13 14  1  1
 14 15  2  0
 15 16  1  0
 16 17  2  0
 17 18  1  0
 17 19  1  0
 19 20  2  0
 13 21  1  0
 21 22  1  0
 22 23  2  0
 23 24  1  0
 24 25  2  0
 25 26  1  0
 26 27  1  0
 26 28  1  0
 29 28  1  6
 29 30  1  0
 30 31  1  0
 31 32  1  0
 32 33  1  1
 33 34  1  0
 34 35  1  0
 35 36  1  0
 36 37  1  0
 36 38  1  0
 38 39  2  0
 38 40  1  0
 32 41  1  0
 41 42  1  0
 25 43  1  0
 43 44  2  0
 21 45  1  0
 45 46  2  0
 45 47  1  0
  8  3  1  0
 20 14  1  0
 44 22  1  0
 47  5  1  0
 42 29  1  0
 40 33  1  0
M  END
>  <Synonyms>  (379) 
CGM 097|CGM-097|CGM097|NVP-CGM-097

>  <Research Codes>  (379) 
CGM 097|CGM-097|CGM097|NVP-CGM-097

>  <Phase>  (379) 
1

>  <Applicants>  (379) 
nan

>  <USAN Stem>  (379) 
nan

>  <USAN Year>  (379) 
nan

>  <USAN Stem Definition>  (379) 
nan

>  <USAN Stem Substem>  (379) 
nan

>  <First Approval>  (379) 
nan

>  <ATC Codes>  (379) 
nan

>  <Level 4 ATC Codes>  (379) 
nan

>  <Level 3 ATC Codes>  (379) 
nan

>  <Level 2 ATC Codes>  (379) 
nan

>  <Level 1 ATC Codes>  (379) 
nan

>  <Indication Class>  (379) 
nan

>  <Patent>  (379) 
nan

>  <Drug Type>  (379) 
1:Synthetic Small Molecule

>  <Passes Rule of Five>  (379) 
False

>  <First In Class>  (379) 
False

>  <Chirality>  (379) 
Single Stereoisomer

>  <Prodrug>  (379) 
False

>  <Oral>  (379) 
False

>  <Parenteral>  (379) 
False

>  <Topical>  (379) 
False

>  <Black Box>  (379) 
False

>  <Availability Type>  (379) 
Unknown

>  <Withdrawn Year>  (379) 
nan

>  <Withdrawn Reason>  (379) 
nan

>  <Withdrawn Country>  (379) 
nan

>  <Withdrawn Class>  (379) 
nan

>  <SMILES>  (379) 
COc1cc2c(cc1OC(C)C)[C@H](c1ccc(Cl)cc1)N(c1ccc(N(C)C[C@H]3CC[C@H](N4CCN(C)C(=O)C4)CC3)cc1)C(=O)C2

>  <InChi Key>  (379) 
CLRSLRWKONPSRQ-IIPSPAQQSA-N

$$$$
CHEMBL2323775
     RDKit          2D

 34 38  0  0  0  0  0  0  0  0999 V2000
    4.6740   -4.8322    0.0000 C   0  0  0  0  0  0  0  0  0  0  0  0
    3.3037   -4.2221    0.0000 N   0  0  0  0  0  0  0  0  0  0  0  0
    2.9918   -2.7549    0.0000 C   0  0  0  0  0  0  0  0  0  0  0  0
    1.5000   -2.5981    0.0000 C   0  0  0  0  0  0  0  0  0  0  0  0
    0.7500   -1.2990    0.0000 C   0  0  0  0  0  0  0  0  0  0  0  0
    1.5000    0.0000    0.0000 C   0  0  0  0  0  0  0  0  0  0  0  0
    0.7500    1.2990    0.0000 N   0  0  0  0  0  0  0  0  0  0  0  0
   -0.7500    1.2990    0.0000 C   0  0  0  0  0  0  0  0  0  0  0  0
   -1.2980    2.6953    0.0000 C   0  0  0  0  0  0  0  0  0  0  0  0
   -2.7314    3.1375    0.0000 C   0  0  0  0  0  0  0  0  0  0  0  0
   -3.9707    2.2925    0.0000 C   0  0  0  0  0  0  0  0  0  0  0  0
   -5.2101    3.1375    0.0000 C   0  0  0  0  0  0  0  0  0  0  0  0
   -6.5615    2.4867    0.0000 C   0  0  0  0  0  0  0  0  0  0  0  0
   -6.6736    0.9909    0.0000 C   0  0  0  0  0  0  0  0  0  0  0  0
   -8.0251    0.3400    0.0000 C   0  0  0  0  0  0  0  0  0  0  0  0
   -9.2644    1.1850    0.0000 S   0  0  0  0  0  0  0  0  0  0  0  0
  -10.1094   -0.0544    0.0000 O   0  0  0  0  0  0  0  0  0  0  0  0
   -8.4195    2.4244    0.0000 O   0  0  0  0  0  0  0  0  0  0  0  0
  -10.5038    2.0300    0.0000 N   0  0  0  0  0  0  0  0  0  0  0  0
  -10.3917    3.5258    0.0000 C   0  0  0  0  0  0  0  0  0  0  0  0
  -11.6311    4.3708    0.0000 C   0  0  0  0  0  0  0  0  0  0  0  0
  -11.5190    5.8666    0.0000 C   0  0  0  0  0  0  0  0  0  0  0  0
  -12.7583    6.7116    0.0000 C   0  0  0  0  0  0  0  0  0  0  0  0
  -14.1098    6.0607    0.0000 C   0  0  0  0  0  0  0  0  0  0  0  0
  -14.2219    4.5649    0.0000 C   0  0  0  0  0  0  0  0  0  0  0  0
  -12.9825    3.7199    0.0000 N   0  0  0  0  0  0  0  0  0  0  0  0
   -5.4343    0.1459    0.0000 C   0  0  0  0  0  0  0  0  0  0  0  0
   -4.0828    0.7967    0.0000 C   0  0  0  0  0  0  0  0  0  0  0  0
   -2.9832   -0.2236    0.0000 C   0  0  0  0  0  0  0  0  0  0  0  0
   -3.4254   -1.6569    0.0000 O   0  0  0  0  0  0  0  0  0  0  0  0
   -1.5000    0.0000    0.0000 C   0  0  0  0  0  0  0  0  0  0  0  0
   -0.7500   -1.2990    0.0000 C   0  0  0  0  0  0  0  0  0  0  0  0
    0.8899   -3.9684    0.0000 C   0  0  0  0  0  0  0  0  0  0  0  0
    2.0046   -4.9721    0.0000 N   0  0  0  0  0  0  0  0  0  0  0  0
  1  2  1  0
  2  3  1  0
  3  4  2  0
  4  5  1  0
  5  6  2  0
  6  7  1  0
  7  8  2  0
  8  9  1  0
  9 10  2  0
 10 11  1  0
 11 12  2  0
 12 13  1  0
 13 14  2  0
 14 15  1  0
 15 16  1  0
 16 17  2  0
 16 18  2  0
 16 19  1  0
 19 20  1  0
 20 21  1  0
 21 22  2  0
 22 23  1  0
 23 24  2  0
 24 25  1  0
 25 26  2  0
 14 27  1  0
 27 28  2  0
 28 29  1  0
 29 30  2  0
 29 31  1  0
 31 32  2  0
  4 33  1  0
 33 34  2  0
 34  2  1  0
 32  5  1  0
 31  8  1  0
 28 11  1  0
 26 21  1  0
M  END
>  <Synonyms>  (380) 
MK-8033|MK8033

>  <Research Codes>  (380) 
MK-8033|MK8033

>  <Phase>  (380) 
1

>  <Applicants>  (380) 
nan

>  <USAN Stem>  (380) 
nan

>  <USAN Year>  (380) 
nan

>  <USAN Stem Definition>  (380) 
nan

>  <USAN Stem Substem>  (380) 
nan

>  <First Approval>  (380) 
nan

>  <ATC Codes>  (380) 
nan

>  <Level 4 ATC Codes>  (380) 
nan

>  <Level 3 ATC Codes>  (380) 
nan

>  <Level 2 ATC Codes>  (380) 
nan

>  <Level 1 ATC Codes>  (380) 
nan

>  <Indication Class>  (380) 
nan

>  <Patent>  (380) 
nan

>  <Drug Type>  (380) 
1:Synthetic Small Molecule

>  <Passes Rule of Five>  (380) 
True

>  <First In Class>  (380) 
False

>  <Chirality>  (380) 
Achiral Molecule

>  <Prodrug>  (380) 
False

>  <Oral>  (380) 
False

>  <Parenteral>  (380) 
False

>  <Topical>  (380) 
False

>  <Black Box>  (380) 
False

>  <Availability Type>  (380) 
Unknown

>  <Withdrawn Year>  (380) 
nan

>  <Withdrawn Reason>  (380) 
nan

>  <Withdrawn Country>  (380) 
nan

>  <Withdrawn Class>  (380) 
nan

>  <SMILES>  (380) 
Cn1cc(-c2cnc3ccc4ccc(CS(=O)(=O)NCc5ccccn5)cc4c(=O)c3c2)cn1

>  <InChi Key>  (380) 
VMJFTOSOFDEKTM-UHFFFAOYSA-N

$$$$
CHEMBL577711
     RDKit          2D

 27 28  0  0  0  0  0  0  0  0999 V2000
    8.2500   -3.8971    0.0000 C   0  0  0  0  0  0  0  0  0  0  0  0
    7.5000   -2.5981    0.0000 C   0  0  0  0  0  0  0  0  0  0  0  0
    6.0000   -2.5981    0.0000 C   0  0  0  0  0  0  0  0  0  0  0  0
    5.2500   -1.2990    0.0000 C   0  0  0  0  0  0  0  0  0  0  0  0
    6.0000    0.0000    0.0000 C   0  0  0  0  0  0  0  0  0  0  0  0
    7.5000    0.0000    0.0000 C   0  0  0  0  0  0  0  0  0  0  0  0
    8.2500    1.2990    0.0000 C   0  0  0  0  0  0  0  0  0  0  0  0
    3.7500   -1.2990    0.0000 C   0  0  0  0  0  0  0  0  0  0  0  0
    3.0000   -2.5981    0.0000 O   0  0  0  0  0  0  0  0  0  0  0  0
    3.0000    0.0000    0.0000 N   0  0  0  0  0  0  0  0  0  0  0  0
    1.5000    0.0000    0.0000 C   0  0  0  0  0  0  0  0  0  0  0  0
    0.7500   -1.2990    0.0000 C   0  0  0  0  0  0  0  0  0  0  0  0
   -0.7500   -1.2990    0.0000 C   0  0  0  0  0  0  0  0  0  0  0  0
   -1.5000    0.0000    0.0000 N   0  0  0  0  0  0  0  0  0  0  0  0
   -3.0000    0.0000    0.0000 C   0  0  0  0  0  0  0  0  0  0  0  0
   -3.8817   -1.2135    0.0000 O   0  0  0  0  0  0  0  0  0  0  0  0
   -5.3083   -0.7500    0.0000 C   0  0  0  0  0  0  0  0  0  0  0  0
   -6.5218   -1.6317    0.0000 C   0  0  0  0  0  0  0  0  0  0  0  0
   -7.8921   -1.0216    0.0000 O   0  0  0  0  0  0  0  0  0  0  0  0
   -5.3083    0.7500    0.0000 C   0  0  0  0  0  0  0  0  0  0  0  0
   -6.5218    1.6317    0.0000 O   0  0  0  0  0  0  0  0  0  0  0  0
   -3.8817    1.2135    0.0000 C   0  0  0  0  0  0  0  0  0  0  0  0
   -4.4918    2.5838    0.0000 F   0  0  0  0  0  0  0  0  0  0  0  0
   -2.5826    1.9635    0.0000 F   0  0  0  0  0  0  0  0  0  0  0  0
   -0.7500    1.2990    0.0000 C   0  0  0  0  0  0  0  0  0  0  0  0
   -1.5000    2.5981    0.0000 O   0  0  0  0  0  0  0  0  0  0  0  0
    0.7500    1.2990    0.0000 N   0  0  0  0  0  0  0  0  0  0  0  0
  1  2  1  0
  2  3  1  0
  3  4  1  0
  4  5  1  0
  5  6  1  0
  6  7  1  0
  4  8  1  0
  8  9  2  0
  8 10  1  0
 10 11  2  3
 11 12  1  0
 12 13  2  0
 13 14  1  0
 15 14  1  6
 15 16  1  0
 16 17  1  0
 17 18  1  6
 18 19  1  0
 17 20  1  0
 20 21  1  1
 20 22  1  0
 22 23  1  0
 22 24  1  0
 14 25  1  0
 25 26  2  0
 25 27  1  0
 27 11  1  0
 22 15  1  0
M  END
>  <Synonyms>  (381) 
LY-2334737|LY2334737

>  <Research Codes>  (381) 
LY-2334737|LY2334737

>  <Phase>  (381) 
1

>  <Applicants>  (381) 
nan

>  <USAN Stem>  (381) 
nan

>  <USAN Year>  (381) 
nan

>  <USAN Stem Definition>  (381) 
nan

>  <USAN Stem Substem>  (381) 
nan

>  <First Approval>  (381) 
nan

>  <ATC Codes>  (381) 
nan

>  <Level 4 ATC Codes>  (381) 
nan

>  <Level 3 ATC Codes>  (381) 
nan

>  <Level 2 ATC Codes>  (381) 
nan

>  <Level 1 ATC Codes>  (381) 
nan

>  <Indication Class>  (381) 
nan

>  <Patent>  (381) 
nan

>  <Drug Type>  (381) 
1:Synthetic Small Molecule

>  <Passes Rule of Five>  (381) 
True

>  <First In Class>  (381) 
False

>  <Chirality>  (381) 
Single Stereoisomer

>  <Prodrug>  (381) 
False

>  <Oral>  (381) 
False

>  <Parenteral>  (381) 
False

>  <Topical>  (381) 
False

>  <Black Box>  (381) 
False

>  <Availability Type>  (381) 
Unknown

>  <Withdrawn Year>  (381) 
nan

>  <Withdrawn Reason>  (381) 
nan

>  <Withdrawn Country>  (381) 
nan

>  <Withdrawn Class>  (381) 
nan

>  <SMILES>  (381) 
CCCC(CCC)C(=O)Nc1ccn([C@@H]2O[C@H](CO)[C@@H](O)C2(F)F)c(=O)n1

>  <InChi Key>  (381) 
MEOYFIHNRBNEPI-UXIGCNINSA-N

$$$$
CHEMBL136497
     RDKit          2D

 16 17  0  0  0  0  0  0  0  0999 V2000
    3.0000    0.0000    0.0000 N   0  0  0  0  0  0  0  0  0  0  0  0
    1.5000    0.0000    0.0000 C   0  0  0  0  0  0  0  0  0  0  0  0
    0.7500   -1.2990    0.0000 N   0  0  0  0  0  0  0  0  0  0  0  0
   -0.7500   -1.2990    0.0000 C   0  0  0  0  0  0  0  0  0  0  0  0
   -1.5000   -2.5981    0.0000 N   0  0  0  0  0  0  0  0  0  0  0  0
   -1.5000    0.0000    0.0000 N   0  0  0  0  0  0  0  0  0  0  0  0
   -0.7500    1.2990    0.0000 C   0  0  0  0  0  0  0  0  0  0  0  0
   -1.5000    2.5981    0.0000 C   0  0  0  0  0  0  0  0  0  0  0  0
   -0.7500    3.8971    0.0000 C   0  0  0  0  0  0  0  0  0  0  0  0
   -1.5000    5.1962    0.0000 C   0  0  0  0  0  0  0  0  0  0  0  0
   -0.7500    6.4952    0.0000 Cl  0  0  0  0  0  0  0  0  0  0  0  0
   -3.0000    5.1962    0.0000 C   0  0  0  0  0  0  0  0  0  0  0  0
   -3.7500    3.8971    0.0000 C   0  0  0  0  0  0  0  0  0  0  0  0
   -3.0000    2.5981    0.0000 C   0  0  0  0  0  0  0  0  0  0  0  0
   -3.7500    1.2990    0.0000 Cl  0  0  0  0  0  0  0  0  0  0  0  0
    0.7500    1.2990    0.0000 N   0  0  0  0  0  0  0  0  0  0  0  0
  1  2  2  0
  2  3  1  0
  3  4  1  0
  4  5  2  0
  4  6  1  0
  6  7  1  0
  7  8  1  0
  8  9  2  0
  9 10  1  0
 10 11  1  0
 10 12  2  0
 12 13  1  0
 13 14  2  0
 14 15  1  0
  7 16  2  0
 16  2  1  0
 14  8  1  0
M  END
>  <Synonyms>  (382) 
IRSOGLADINE|IRSOGLADINE MALEATE|Irsogladine

>  <Research Codes>  (382) 
nan

>  <Phase>  (382) 
1

>  <Applicants>  (382) 
nan

>  <USAN Stem>  (382) 
nan

>  <USAN Year>  (382) 
nan

>  <USAN Stem Definition>  (382) 
nan

>  <USAN Stem Substem>  (382) 
nan

>  <First Approval>  (382) 
nan

>  <ATC Codes>  (382) 
nan

>  <Level 4 ATC Codes>  (382) 
nan

>  <Level 3 ATC Codes>  (382) 
nan

>  <Level 2 ATC Codes>  (382) 
nan

>  <Level 1 ATC Codes>  (382) 
nan

>  <Indication Class>  (382) 
nan

>  <Patent>  (382) 
nan

>  <Drug Type>  (382) 
1:Synthetic Small Molecule

>  <Passes Rule of Five>  (382) 
True

>  <First In Class>  (382) 
False

>  <Chirality>  (382) 
Achiral Molecule

>  <Prodrug>  (382) 
False

>  <Oral>  (382) 
False

>  <Parenteral>  (382) 
False

>  <Topical>  (382) 
False

>  <Black Box>  (382) 
False

>  <Availability Type>  (382) 
Unknown

>  <Withdrawn Year>  (382) 
nan

>  <Withdrawn Reason>  (382) 
nan

>  <Withdrawn Country>  (382) 
nan

>  <Withdrawn Class>  (382) 
nan

>  <SMILES>  (382) 
Nc1nc(N)nc(-c2cc(Cl)ccc2Cl)n1

>  <InChi Key>  (382) 
ATCGGEJZONJOCL-UHFFFAOYSA-N

$$$$
CHEMBL229430
     RDKit          2D

 30 33  0  0  0  0  0  0  0  0999 V2000
   -7.0211   -2.5537    0.0000 C   0  0  0  0  0  0  0  0  0  0  0  0
   -5.7221   -1.8037    0.0000 C   0  0  0  0  0  0  0  0  0  0  0  0
   -5.7221   -0.3037    0.0000 O   0  0  0  0  0  0  0  0  0  0  0  0
   -4.4231   -2.5537    0.0000 N   0  0  0  0  0  0  0  0  0  0  0  0
   -3.1240   -1.8037    0.0000 C   0  0  0  0  0  0  0  0  0  0  0  0
   -1.7537   -2.4138    0.0000 N   0  0  0  0  0  0  0  0  0  0  0  0
   -0.7500   -1.2990    0.0000 C   0  0  0  0  0  0  0  0  0  0  0  0
    0.7500   -1.2990    0.0000 C   0  0  0  0  0  0  0  0  0  0  0  0
    1.5000   -2.5981    0.0000 O   0  0  0  0  0  0  0  0  0  0  0  0
    3.0000   -2.5981    0.0000 C   0  0  0  0  0  0  0  0  0  0  0  0
    3.7500   -3.8971    0.0000 C   0  0  0  0  0  0  0  0  0  0  0  0
    5.2500   -3.8971    0.0000 C   0  0  0  0  0  0  0  0  0  0  0  0
    6.0000   -5.1962    0.0000 C   0  0  0  0  0  0  0  0  0  0  0  0
    5.2500   -6.4952    0.0000 C   0  0  0  0  0  0  0  0  0  0  0  0
    6.0000   -7.7942    0.0000 C   0  0  0  0  0  0  0  0  0  0  0  0
    7.5000   -7.7942    0.0000 C   0  0  0  0  0  0  0  0  0  0  0  0
    8.2500   -9.0933    0.0000 C   0  0  0  0  0  0  0  0  0  0  0  0
    9.0000  -10.3923    0.0000 F   0  0  0  0  0  0  0  0  0  0  0  0
    6.9510   -9.8433    0.0000 F   0  0  0  0  0  0  0  0  0  0  0  0
    9.5490   -8.3433    0.0000 F   0  0  0  0  0  0  0  0  0  0  0  0
    8.2500   -6.4952    0.0000 C   0  0  0  0  0  0  0  0  0  0  0  0
    7.5000   -5.1962    0.0000 C   0  0  0  0  0  0  0  0  0  0  0  0
    6.0000   -2.5981    0.0000 N   0  0  0  0  0  0  0  0  0  0  0  0
    5.2500   -1.2990    0.0000 C   0  0  0  0  0  0  0  0  0  0  0  0
    3.7500   -1.2990    0.0000 N   0  0  0  0  0  0  0  0  0  0  0  0
    1.5000    0.0000    0.0000 C   0  0  0  0  0  0  0  0  0  0  0  0
    0.7500    1.2990    0.0000 C   0  0  0  0  0  0  0  0  0  0  0  0
   -0.7500    1.2990    0.0000 C   0  0  0  0  0  0  0  0  0  0  0  0
   -1.5000    0.0000    0.0000 C   0  0  0  0  0  0  0  0  0  0  0  0
   -2.9672   -0.3119    0.0000 S   0  0  0  0  0  0  0  0  0  0  0  0
  1  2  1  0
  2  3  2  0
  2  4  1  0
  4  5  2  3
  5  6  1  0
  6  7  1  0
  7  8  2  0
  8  9  1  0
  9 10  1  0
 10 11  2  0
 11 12  1  0
 12 13  1  0
 13 14  2  0
 14 15  1  0
 15 16  2  0
 16 17  1  0
 17 18  1  0
 17 19  1  0
 17 20  1  0
 16 21  1  0
 21 22  2  0
 12 23  2  0
 23 24  1  0
 24 25  2  0
  8 26  1  0
 26 27  2  0
 27 28  1  0
 28 29  2  0
 29 30  1  0
 30  5  1  0
 29  7  1  0
 25 10  1  0
 22 13  1  0
M  END
>  <Synonyms>  (383) 
AMG-517

>  <Research Codes>  (383) 
AMG-517

>  <Phase>  (383) 
1

>  <Applicants>  (383) 
nan

>  <USAN Stem>  (383) 
nan

>  <USAN Year>  (383) 
nan

>  <USAN Stem Definition>  (383) 
nan

>  <USAN Stem Substem>  (383) 
nan

>  <First Approval>  (383) 
nan

>  <ATC Codes>  (383) 
nan

>  <Level 4 ATC Codes>  (383) 
nan

>  <Level 3 ATC Codes>  (383) 
nan

>  <Level 2 ATC Codes>  (383) 
nan

>  <Level 1 ATC Codes>  (383) 
nan

>  <Indication Class>  (383) 
nan

>  <Patent>  (383) 
nan

>  <Drug Type>  (383) 
1:Synthetic Small Molecule

>  <Passes Rule of Five>  (383) 
False

>  <First In Class>  (383) 
False

>  <Chirality>  (383) 
Achiral Molecule

>  <Prodrug>  (383) 
False

>  <Oral>  (383) 
False

>  <Parenteral>  (383) 
False

>  <Topical>  (383) 
False

>  <Black Box>  (383) 
False

>  <Availability Type>  (383) 
Unknown

>  <Withdrawn Year>  (383) 
nan

>  <Withdrawn Reason>  (383) 
nan

>  <Withdrawn Country>  (383) 
nan

>  <Withdrawn Class>  (383) 
nan

>  <SMILES>  (383) 
CC(=O)Nc1nc2c(Oc3cc(-c4ccc(C(F)(F)F)cc4)ncn3)cccc2s1

>  <InChi Key>  (383) 
YUTIXVXZQIQWGY-UHFFFAOYSA-N

$$$$
CHEMBL2029988
     RDKit          2D

 37 40  0  0  0  0  0  0  0  0999 V2000
    0.7500   -6.4952    0.0000 C   0  0  0  0  0  0  0  0  0  0  0  0
    1.5000   -5.1962    0.0000 O   0  0  0  0  0  0  0  0  0  0  0  0
    0.7500   -3.8971    0.0000 C   0  0  0  0  0  0  0  0  0  0  0  0
    1.5000   -2.5981    0.0000 C   0  0  0  0  0  0  0  0  0  0  0  0
    0.7500   -1.2990    0.0000 C   0  0  0  0  0  0  0  0  0  0  0  0
    1.5000    0.0000    0.0000 N   0  0  0  0  0  0  0  0  0  0  0  0
    0.7500    1.2990    0.0000 C   0  0  0  0  0  0  0  0  0  0  0  0
   -0.7500    1.2990    0.0000 N   0  0  0  0  0  0  0  0  0  0  0  0
   -1.5000    0.0000    0.0000 C   0  0  0  0  0  0  0  0  0  0  0  0
   -3.0000    0.0000    0.0000 O   0  0  0  0  0  0  0  0  0  0  0  0
   -3.7500    1.2990    0.0000 C   0  0  0  0  0  0  0  0  0  0  0  0
   -3.0000    2.5981    0.0000 C   0  0  0  0  0  0  0  0  0  0  0  0
   -3.7500    3.8971    0.0000 C   0  0  0  0  0  0  0  0  0  0  0  0
   -5.2500    3.8971    0.0000 C   0  0  0  0  0  0  0  0  0  0  0  0
   -6.0000    2.5981    0.0000 C   0  0  0  0  0  0  0  0  0  0  0  0
   -7.5000    2.5981    0.0000 N   0  0  0  0  0  0  0  0  0  0  0  0
   -8.2500    3.8971    0.0000 C   0  0  0  0  0  0  0  0  0  0  0  0
   -7.5000    5.1962    0.0000 O   0  0  0  0  0  0  0  0  0  0  0  0
   -9.7500    3.8971    0.0000 N   0  0  0  0  0  0  0  0  0  0  0  0
  -10.5000    5.1962    0.0000 C   0  0  0  0  0  0  0  0  0  0  0  0
  -11.9918    5.3529    0.0000 C   0  0  0  0  0  0  0  0  0  0  0  0
  -12.3037    6.8202    0.0000 C   0  0  0  0  0  0  0  0  0  0  0  0
  -13.6740    7.4303    0.0000 C   0  0  0  0  0  0  0  0  0  0  0  0
  -14.2841    6.0600    0.0000 C   0  0  0  0  0  0  0  0  0  0  0  0
  -13.0639    8.8006    0.0000 C   0  0  0  0  0  0  0  0  0  0  0  0
  -15.0443    8.0404    0.0000 C   0  0  0  0  0  0  0  0  0  0  0  0
  -16.4146    8.6505    0.0000 F   0  0  0  0  0  0  0  0  0  0  0  0
  -15.6544    6.6701    0.0000 F   0  0  0  0  0  0  0  0  0  0  0  0
  -14.4342    9.4107    0.0000 F   0  0  0  0  0  0  0  0  0  0  0  0
  -11.0046    7.5702    0.0000 O   0  0  0  0  0  0  0  0  0  0  0  0
   -9.8899    6.5665    0.0000 N   0  0  0  0  0  0  0  0  0  0  0  0
   -5.2500    1.2990    0.0000 C   0  0  0  0  0  0  0  0  0  0  0  0
   -0.7500   -1.2990    0.0000 C   0  0  0  0  0  0  0  0  0  0  0  0
   -1.5000   -2.5981    0.0000 C   0  0  0  0  0  0  0  0  0  0  0  0
   -0.7500   -3.8971    0.0000 C   0  0  0  0  0  0  0  0  0  0  0  0
   -1.5000   -5.1962    0.0000 O   0  0  0  0  0  0  0  0  0  0  0  0
   -3.0000   -5.1962    0.0000 C   0  0  0  0  0  0  0  0  0  0  0  0
  1  2  1  0
  2  3  1  0
  3  4  2  0
  4  5  1  0
  5  6  2  0
  6  7  1  0
  7  8  2  0
  8  9  1  0
  9 10  1  0
 10 11  1  0
 11 12  2  0
 12 13  1  0
 13 14  2  0
 14 15  1  0
 15 16  1  0
 16 17  1  0
 17 18  2  0
 17 19  1  0
 19 20  2  3
 20 21  1  0
 21 22  2  0
 22 23  1  0
 23 24  1  0
 23 25  1  0
 23 26  1  0
 26 27  1  0
 26 28  1  0
 26 29  1  0
 22 30  1  0
 30 31  1  0
 15 32  2  0
  9 33  2  0
 33 34  1  0
 34 35  2  0
 35 36  1  0
 36 37  1  0
 35  3  1  0
 33  5  1  0
 32 11  1  0
 31 20  1  0
M  END
>  <Synonyms>  (384) 
AB-024|AC-013773|AGERAFENIB|CEP-32496|RXDX 105|RXDX-105

>  <Research Codes>  (384) 
AB-024|AC-013773|CEP-32496|RXDX-105

>  <Phase>  (384) 
1

>  <Applicants>  (384) 
nan

>  <USAN Stem>  (384) 
nan

>  <USAN Year>  (384) 
nan

>  <USAN Stem Definition>  (384) 
nan

>  <USAN Stem Substem>  (384) 
nan

>  <First Approval>  (384) 
nan

>  <ATC Codes>  (384) 
nan

>  <Level 4 ATC Codes>  (384) 
nan

>  <Level 3 ATC Codes>  (384) 
nan

>  <Level 2 ATC Codes>  (384) 
nan

>  <Level 1 ATC Codes>  (384) 
nan

>  <Indication Class>  (384) 
nan

>  <Patent>  (384) 
nan

>  <Drug Type>  (384) 
1:Synthetic Small Molecule

>  <Passes Rule of Five>  (384) 
False

>  <First In Class>  (384) 
False

>  <Chirality>  (384) 
Achiral Molecule

>  <Prodrug>  (384) 
False

>  <Oral>  (384) 
False

>  <Parenteral>  (384) 
False

>  <Topical>  (384) 
False

>  <Black Box>  (384) 
False

>  <Availability Type>  (384) 
Unknown

>  <Withdrawn Year>  (384) 
nan

>  <Withdrawn Reason>  (384) 
nan

>  <Withdrawn Country>  (384) 
nan

>  <Withdrawn Class>  (384) 
nan

>  <SMILES>  (384) 
COc1cc2ncnc(Oc3cccc(NC(=O)Nc4cc(C(C)(C)C(F)(F)F)on4)c3)c2cc1OC

>  <InChi Key>  (384) 
DKNUPRMJNUQNHR-UHFFFAOYSA-N

$$$$
CHEMBL4297518
     RDKit          2D

 37 40  0  0  0  0  0  0  0  0999 V2000
    7.5000   -0.0000    0.0000 C   0  0  0  0  0  0  0  0  0  0  0  0
    6.0000   -0.0000    0.0000 C   0  0  0  0  0  0  0  0  0  0  0  0
    5.2500   -1.2990    0.0000 C   0  0  0  0  0  0  0  0  0  0  0  0
    3.7500   -1.2990    0.0000 O   0  0  0  0  0  0  0  0  0  0  0  0
    3.0000   -2.5981    0.0000 C   0  0  0  0  0  0  0  0  0  0  0  0
    3.7500   -3.8971    0.0000 C   0  0  0  0  0  0  0  0  0  0  0  0
    3.0000   -5.1962    0.0000 C   0  0  0  0  0  0  0  0  0  0  0  0
    1.5000   -5.1962    0.0000 C   0  0  0  0  0  0  0  0  0  0  0  0
    0.7500   -6.4952    0.0000 S   0  0  0  0  0  0  0  0  0  0  0  0
   -0.5490   -5.7452    0.0000 O   0  0  0  0  0  0  0  0  0  0  0  0
    2.0490   -7.2452    0.0000 O   0  0  0  0  0  0  0  0  0  0  0  0
   -0.0000   -7.7942    0.0000 N   0  0  0  0  0  0  0  0  0  0  0  0
   -1.5000   -7.7942    0.0000 C   0  0  0  0  0  0  0  0  0  0  0  0
   -2.2500   -9.0933    0.0000 C   0  0  0  0  0  0  0  0  0  0  0  0
   -1.5000  -10.3923    0.0000 N   0  0  0  0  0  0  0  0  0  0  0  0
   -2.2500  -11.6913    0.0000 C   0  0  0  0  0  0  0  0  0  0  0  0
   -3.7500  -11.6913    0.0000 C   0  0  0  0  0  0  0  0  0  0  0  0
   -4.5000  -12.9904    0.0000 O   0  0  0  0  0  0  0  0  0  0  0  0
   -0.0000  -10.3923    0.0000 C   0  0  0  0  0  0  0  0  0  0  0  0
    0.7500   -9.0933    0.0000 C   0  0  0  0  0  0  0  0  0  0  0  0
    0.7500   -3.8971    0.0000 C   0  0  0  0  0  0  0  0  0  0  0  0
    1.5000   -2.5981    0.0000 C   0  0  0  0  0  0  0  0  0  0  0  0
    0.7500   -1.2990    0.0000 C   0  0  0  0  0  0  0  0  0  0  0  0
    1.5000    0.0000    0.0000 N   0  0  0  0  0  0  0  0  0  0  0  0
    0.7500    1.2990    0.0000 C   0  0  0  0  0  0  0  0  0  0  0  0
    1.2135    2.7256    0.0000 C   0  0  0  0  0  0  0  0  0  0  0  0
    2.6401    3.1891    0.0000 C   0  0  0  0  0  0  0  0  0  0  0  0
    2.9520    4.6564    0.0000 C   0  0  0  0  0  0  0  0  0  0  0  0
    4.3786    5.1199    0.0000 C   0  0  0  0  0  0  0  0  0  0  0  0
    0.0000    3.6073    0.0000 C   0  0  0  0  0  0  0  0  0  0  0  0
   -1.2135    2.7256    0.0000 N   0  0  0  0  0  0  0  0  0  0  0  0
   -2.6401    3.1891    0.0000 C   0  0  0  0  0  0  0  0  0  0  0  0
   -2.9520    4.6564    0.0000 C   0  0  0  0  0  0  0  0  0  0  0  0
   -0.7500    1.2990    0.0000 C   0  0  0  0  0  0  0  0  0  0  0  0
   -1.5000    0.0000    0.0000 C   0  0  0  0  0  0  0  0  0  0  0  0
   -3.0000    0.0000    0.0000 O   0  0  0  0  0  0  0  0  0  0  0  0
   -0.7500   -1.2990    0.0000 N   0  0  0  0  0  0  0  0  0  0  0  0
  1  2  1  0
  2  3  1  0
  3  4  1  0
  4  5  1  0
  5  6  2  0
  6  7  1  0
  7  8  2  0
  8  9  1  0
  9 10  2  0
  9 11  2  0
  9 12  1  0
 12 13  1  0
 13 14  1  0
 14 15  1  0
 15 16  1  0
 16 17  1  0
 17 18  1  0
 15 19  1  0
 19 20  1  0
  8 21  1  0
 21 22  2  0
 22 23  1  0
 23 24  1  0
 24 25  1  0
 25 26  1  0
 26 27  1  0
 27 28  1  0
 28 29  1  0
 26 30  2  0
 30 31  1  0
 31 32  1  0
 32 33  1  0
 31 34  1  0
 34 35  1  0
 35 36  2  0
 35 37  1  0
 22  5  1  0
 37 23  2  0
 20 12  1  0
 34 25  2  0
M  END
>  <Synonyms>  (385) 
MIRODENAFIL|SK-3530 FREE BASE|SK3530 FREE BASE

>  <Research Codes>  (385) 
SK-3530 FREE BASE|SK3530 FREE BASE

>  <Phase>  (385) 
1

>  <Applicants>  (385) 
nan

>  <USAN Stem>  (385) 
'-afil'

>  <USAN Year>  (385) 
nan

>  <USAN Stem Definition>  (385) 
PDE5 inhibitors

>  <USAN Stem Substem>  (385) 
'-afil(-afil)'

>  <First Approval>  (385) 
nan

>  <ATC Codes>  (385) 
nan

>  <Level 4 ATC Codes>  (385) 
nan

>  <Level 3 ATC Codes>  (385) 
nan

>  <Level 2 ATC Codes>  (385) 
nan

>  <Level 1 ATC Codes>  (385) 
nan

>  <Indication Class>  (385) 
nan

>  <Patent>  (385) 
nan

>  <Drug Type>  (385) 
1:Synthetic Small Molecule

>  <Passes Rule of Five>  (385) 
False

>  <First In Class>  (385) 
False

>  <Chirality>  (385) 
Achiral Molecule

>  <Prodrug>  (385) 
False

>  <Oral>  (385) 
False

>  <Parenteral>  (385) 
False

>  <Topical>  (385) 
False

>  <Black Box>  (385) 
False

>  <Availability Type>  (385) 
Unknown

>  <Withdrawn Year>  (385) 
nan

>  <Withdrawn Reason>  (385) 
nan

>  <Withdrawn Country>  (385) 
nan

>  <Withdrawn Class>  (385) 
nan

>  <SMILES>  (385) 
CCCOc1ccc(S(=O)(=O)N2CCN(CCO)CC2)cc1-c1nc2c(CCC)cn(CC)c2c(=O)[nH]1

>  <InChi Key>  (385) 
MIJFNYMSCFYZNY-UHFFFAOYSA-N

$$$$
CHEMBL1328898
     RDKit          2D

 15 15  0  0  0  0  0  0  0  0999 V2000
    7.5000    0.0000    0.0000 C   0  0  0  0  0  0  0  0  0  0  0  0
    6.0000    0.0000    0.0000 O   0  0  0  0  0  0  0  0  0  0  0  0
    5.2500   -1.2990    0.0000 C   0  0  0  0  0  0  0  0  0  0  0  0
    6.0000   -2.5981    0.0000 O   0  0  0  0  0  0  0  0  0  0  0  0
    3.7500   -1.2990    0.0000 C   0  0  0  0  0  0  0  0  0  0  0  0
    3.0000   -2.5981    0.0000 N   0  0  0  0  0  0  0  0  0  0  0  0
    3.0000    0.0000    0.0000 C   0  0  0  0  0  0  0  0  0  0  0  0
    1.5000    0.0000    0.0000 C   0  0  0  0  0  0  0  0  0  0  0  0
    0.7500   -1.2990    0.0000 C   0  0  0  0  0  0  0  0  0  0  0  0
   -0.7500   -1.2990    0.0000 C   0  0  0  0  0  0  0  0  0  0  0  0
   -1.5000    0.0000    0.0000 C   0  0  0  0  0  0  0  0  0  0  0  0
   -3.0000    0.0000    0.0000 O   0  0  0  0  0  0  0  0  0  0  0  0
   -0.7500    1.2990    0.0000 C   0  0  0  0  0  0  0  0  0  0  0  0
   -1.5000    2.5981    0.0000 O   0  0  0  0  0  0  0  0  0  0  0  0
    0.7500    1.2990    0.0000 C   0  0  0  0  0  0  0  0  0  0  0  0
  1  2  1  0
  2  3  1  0
  3  4  2  0
  3  5  1  0
  5  6  1  0
  5  7  1  0
  7  8  1  0
  8  9  2  0
  9 10  1  0
 10 11  2  0
 11 12  1  0
 11 13  1  0
 13 14  1  0
 13 15  2  0
 15  8  1  0
M  END
>  <Synonyms>  (386) 
CHF-1301|MELEVODOPA

>  <Research Codes>  (386) 
CHF-1301

>  <Phase>  (386) 
1

>  <Applicants>  (386) 
nan

>  <USAN Stem>  (386) 
'-dopa'

>  <USAN Year>  (386) 
nan

>  <USAN Stem Definition>  (386) 
dopamine receptor agonists

>  <USAN Stem Substem>  (386) 
'-dopa(-dopa)'

>  <First Approval>  (386) 
nan

>  <ATC Codes>  (386) 
N04BA04

>  <Level 4 ATC Codes>  (386) 
N04BA - Dopa and dopa derivatives

>  <Level 3 ATC Codes>  (386) 
N04B - DOPAMINERGIC AGENTS

>  <Level 2 ATC Codes>  (386) 
N04 - ANTI-PARKINSON DRUGS

>  <Level 1 ATC Codes>  (386) 
N - NERVOUS SYSTEM

>  <Indication Class>  (386) 
nan

>  <Patent>  (386) 
nan

>  <Drug Type>  (386) 
1:Synthetic Small Molecule

>  <Passes Rule of Five>  (386) 
True

>  <First In Class>  (386) 
False

>  <Chirality>  (386) 
Single Stereoisomer

>  <Prodrug>  (386) 
False

>  <Oral>  (386) 
False

>  <Parenteral>  (386) 
False

>  <Topical>  (386) 
False

>  <Black Box>  (386) 
False

>  <Availability Type>  (386) 
Unknown

>  <Withdrawn Year>  (386) 
nan

>  <Withdrawn Reason>  (386) 
nan

>  <Withdrawn Country>  (386) 
nan

>  <Withdrawn Class>  (386) 
nan

>  <SMILES>  (386) 
COC(=O)[C@@H](N)Cc1ccc(O)c(O)c1

>  <InChi Key>  (386) 
XBBDACCLCFWBSI-UHFFFAOYSA-N

$$$$
CHEMBL256705
     RDKit          2D

 23 26  0  0  0  0  0  0  0  0999 V2000
    3.7500   -9.0933    0.0000 C   0  0  0  0  0  0  0  0  0  0  0  0
    3.0000   -7.7942    0.0000 C   0  0  0  0  0  0  0  0  0  0  0  0
    3.7500   -6.4952    0.0000 C   0  0  0  0  0  0  0  0  0  0  0  0
    3.0000   -5.1962    0.0000 C   0  0  0  0  0  0  0  0  0  0  0  0
    3.7500   -3.8971    0.0000 O   0  0  0  0  0  0  0  0  0  0  0  0
    1.5000   -5.1962    0.0000 C   0  0  0  0  0  0  0  0  0  0  0  0
    0.7500   -6.4952    0.0000 C   0  0  0  0  0  0  0  0  0  0  0  0
   -0.7500   -6.4952    0.0000 C   0  0  0  0  0  0  0  0  0  0  0  0
   -1.5000   -5.1962    0.0000 C   0  0  0  0  0  0  0  0  0  0  0  0
   -0.7500   -3.8971    0.0000 C   0  0  0  0  0  0  0  0  0  0  0  0
    0.7500   -3.8971    0.0000 C   0  0  0  0  0  0  0  0  0  0  0  0
    1.5000   -2.5981    0.0000 C   0  0  0  0  0  0  0  0  0  0  0  0
    3.0000   -2.5981    0.0000 O   0  0  0  0  0  0  0  0  0  0  0  0
    0.7500   -1.2990    0.0000 C   0  0  0  0  0  0  0  0  0  0  0  0
    1.5000    0.0000    0.0000 C   0  0  0  0  0  0  0  0  0  0  0  0
    0.7500    1.2990    0.0000 C   0  0  0  0  0  0  0  0  0  0  0  0
   -0.7500    1.2990    0.0000 C   0  0  0  0  0  0  0  0  0  0  0  0
   -1.5000    0.0000    0.0000 C   0  0  0  0  0  0  0  0  0  0  0  0
   -3.0000    0.0000    0.0000 O   0  0  0  0  0  0  0  0  0  0  0  0
   -0.7500   -1.2990    0.0000 C   0  0  0  0  0  0  0  0  0  0  0  0
   -1.5000   -2.5981    0.0000 C   0  0  0  0  0  0  0  0  0  0  0  0
   -3.0000   -2.5981    0.0000 O   0  0  0  0  0  0  0  0  0  0  0  0
    1.5000   -7.7942    0.0000 C   0  0  0  0  0  0  0  0  0  0  0  0
  1  2  1  0
  2  3  2  0
  3  4  1  0
  4  5  1  0
  4  6  2  0
  6  7  1  0
  7  8  1  0
  8  9  2  0
  9 10  1  0
 10 11  2  0
 11 12  1  0
 12 13  1  0
 12 14  2  0
 14 15  1  0
 15 16  2  0
 16 17  1  0
 17 18  2  0
 18 19  1  0
 18 20  1  0
 20 21  2  0
 21 22  1  0
  7 23  2  0
 23  2  1  0
 11  6  1  0
 20 14  1  0
 21 10  1  0
M  END
>  <Synonyms>  (387) 
J655.169F|OCHROMYCINONE|STA-21

>  <Research Codes>  (387) 
J655.169F|STA-21

>  <Phase>  (387) 
1

>  <Applicants>  (387) 
nan

>  <USAN Stem>  (387) 
nan

>  <USAN Year>  (387) 
nan

>  <USAN Stem Definition>  (387) 
nan

>  <USAN Stem Substem>  (387) 
nan

>  <First Approval>  (387) 
nan

>  <ATC Codes>  (387) 
nan

>  <Level 4 ATC Codes>  (387) 
nan

>  <Level 3 ATC Codes>  (387) 
nan

>  <Level 2 ATC Codes>  (387) 
nan

>  <Level 1 ATC Codes>  (387) 
nan

>  <Indication Class>  (387) 
nan

>  <Patent>  (387) 
nan

>  <Drug Type>  (387) 
1:Synthetic Small Molecule

>  <Passes Rule of Five>  (387) 
True

>  <First In Class>  (387) 
False

>  <Chirality>  (387) 
Single Stereoisomer

>  <Prodrug>  (387) 
False

>  <Oral>  (387) 
False

>  <Parenteral>  (387) 
False

>  <Topical>  (387) 
False

>  <Black Box>  (387) 
False

>  <Availability Type>  (387) 
Unknown

>  <Withdrawn Year>  (387) 
nan

>  <Withdrawn Reason>  (387) 
nan

>  <Withdrawn Country>  (387) 
nan

>  <Withdrawn Class>  (387) 
nan

>  <SMILES>  (387) 
C[C@@H]1CC(=O)c2c(ccc3c2C(=O)c2cccc(O)c2C3=O)C1

>  <InChi Key>  (387) 
HTLACEZDKVHAAD-UHFFFAOYSA-N

$$$$
CHEMBL482967
     RDKit          2D

 26 29  0  0  0  0  0  0  0  0999 V2000
   -0.5773   -4.2803    0.0000 C   0  0  0  0  0  0  0  0  0  0  0  0
    0.8899   -3.9684    0.0000 C   0  0  0  0  0  0  0  0  0  0  0  0
    2.0046   -4.9721    0.0000 N   0  0  0  0  0  0  0  0  0  0  0  0
    3.3037   -4.2221    0.0000 C   0  0  0  0  0  0  0  0  0  0  0  0
    4.6740   -4.8322    0.0000 N   0  0  0  0  0  0  0  0  0  0  0  0
    2.9918   -2.7549    0.0000 S   0  0  0  0  0  0  0  0  0  0  0  0
    1.5000   -2.5981    0.0000 C   0  0  0  0  0  0  0  0  0  0  0  0
    0.7500   -1.2990    0.0000 C   0  0  0  0  0  0  0  0  0  0  0  0
    1.5000    0.0000    0.0000 C   0  0  0  0  0  0  0  0  0  0  0  0
    0.7500    1.2990    0.0000 C   0  0  0  0  0  0  0  0  0  0  0  0
   -0.7500    1.2990    0.0000 N   0  0  0  0  0  0  0  0  0  0  0  0
   -1.5000    0.0000    0.0000 C   0  0  0  0  0  0  0  0  0  0  0  0
   -3.0000    0.0000    0.0000 N   0  0  0  0  0  0  0  0  0  0  0  0
   -3.7500    1.2990    0.0000 C   0  0  0  0  0  0  0  0  0  0  0  0
   -3.0000    2.5981    0.0000 C   0  0  0  0  0  0  0  0  0  0  0  0
   -3.7500    3.8971    0.0000 C   0  0  0  0  0  0  0  0  0  0  0  0
   -5.2500    3.8971    0.0000 C   0  0  0  0  0  0  0  0  0  0  0  0
   -6.0000    5.1962    0.0000 N   0  0  0  0  0  0  0  0  0  0  0  0
   -5.2500    6.4952    0.0000 C   0  0  0  0  0  0  0  0  0  0  0  0
   -6.0000    7.7942    0.0000 C   0  0  0  0  0  0  0  0  0  0  0  0
   -7.5000    7.7942    0.0000 O   0  0  0  0  0  0  0  0  0  0  0  0
   -8.2500    6.4952    0.0000 C   0  0  0  0  0  0  0  0  0  0  0  0
   -7.5000    5.1962    0.0000 C   0  0  0  0  0  0  0  0  0  0  0  0
   -6.0000    2.5981    0.0000 C   0  0  0  0  0  0  0  0  0  0  0  0
   -5.2500    1.2990    0.0000 C   0  0  0  0  0  0  0  0  0  0  0  0
   -0.7500   -1.2990    0.0000 N   0  0  0  0  0  0  0  0  0  0  0  0
  1  2  1  0
  2  3  1  0
  3  4  1  0
  4  5  2  0
  4  6  1  0
  6  7  1  0
  7  8  1  0
  8  9  1  0
  9 10  2  0
 10 11  1  0
 11 12  1  0
 12 13  2  3
 13 14  1  0
 14 15  2  0
 15 16  1  0
 16 17  2  0
 17 18  1  0
 18 19  1  0
 19 20  1  0
 20 21  1  0
 21 22  1  0
 22 23  1  0
 17 24  1  0
 24 25  2  0
 12 26  1  0
  7  2  2  0
 26  8  2  0
 25 14  1  0
 23 18  1  0
M  END
>  <Synonyms>  (388) 
CYC 116|CYC-116

>  <Research Codes>  (388) 
CYC-116

>  <Phase>  (388) 
1

>  <Applicants>  (388) 
nan

>  <USAN Stem>  (388) 
nan

>  <USAN Year>  (388) 
nan

>  <USAN Stem Definition>  (388) 
nan

>  <USAN Stem Substem>  (388) 
nan

>  <First Approval>  (388) 
nan

>  <ATC Codes>  (388) 
nan

>  <Level 4 ATC Codes>  (388) 
nan

>  <Level 3 ATC Codes>  (388) 
nan

>  <Level 2 ATC Codes>  (388) 
nan

>  <Level 1 ATC Codes>  (388) 
nan

>  <Indication Class>  (388) 
nan

>  <Patent>  (388) 
nan

>  <Drug Type>  (388) 
1:Synthetic Small Molecule

>  <Passes Rule of Five>  (388) 
True

>  <First In Class>  (388) 
False

>  <Chirality>  (388) 
Achiral Molecule

>  <Prodrug>  (388) 
False

>  <Oral>  (388) 
False

>  <Parenteral>  (388) 
False

>  <Topical>  (388) 
False

>  <Black Box>  (388) 
False

>  <Availability Type>  (388) 
Unknown

>  <Withdrawn Year>  (388) 
nan

>  <Withdrawn Reason>  (388) 
nan

>  <Withdrawn Country>  (388) 
nan

>  <Withdrawn Class>  (388) 
nan

>  <SMILES>  (388) 
Cc1nc(N)sc1-c1ccnc(Nc2ccc(N3CCOCC3)cc2)n1

>  <InChi Key>  (388) 
GPSZYOIFQZPWEJ-UHFFFAOYSA-N

$$$$
CHEMBL1969664
     RDKit          2D

 25 28  0  0  0  0  0  0  0  0999 V2000
    4.5000    0.0000    0.0000 N   0  0  0  0  0  0  0  0  0  0  0  0
    3.0000    0.0000    0.0000 C   0  0  0  0  0  0  0  0  0  0  0  0
    1.5000    0.0000    0.0000 C   0  0  0  0  0  0  0  0  0  0  0  0
    0.7500   -1.2990    0.0000 C   0  0  0  0  0  0  0  0  0  0  0  0
   -0.7500   -1.2990    0.0000 C   0  0  0  0  0  0  0  0  0  0  0  0
   -1.5000    0.0000    0.0000 C   0  0  0  0  0  0  0  0  0  0  0  0
   -2.9672    0.3119    0.0000 N   0  0  0  0  0  0  0  0  0  0  0  0
   -3.1240    1.8037    0.0000 C   0  0  0  0  0  0  0  0  0  0  0  0
   -4.4231    2.5537    0.0000 O   0  0  0  0  0  0  0  0  0  0  0  0
   -1.7537    2.4138    0.0000 C   0  0  0  0  0  0  0  0  0  0  0  0
   -1.4418    3.8810    0.0000 C   0  0  0  0  0  0  0  0  0  0  0  0
   -0.0152    4.3445    0.0000 C   0  0  0  0  0  0  0  0  0  0  0  0
    0.2966    5.8117    0.0000 C   0  0  0  0  0  0  0  0  0  0  0  0
   -0.8181    6.8154    0.0000 C   0  0  0  0  0  0  0  0  0  0  0  0
   -0.5062    8.2826    0.0000 C   0  0  0  0  0  0  0  0  0  0  0  0
    0.9204    8.7462    0.0000 N   0  0  0  0  0  0  0  0  0  0  0  0
    2.0351    7.7425    0.0000 C   0  0  0  0  0  0  0  0  0  0  0  0
    3.4617    8.2060    0.0000 C   0  0  0  0  0  0  0  0  0  0  0  0
    3.7735    9.6732    0.0000 O   0  0  0  0  0  0  0  0  0  0  0  0
    2.6588   10.6769    0.0000 C   0  0  0  0  0  0  0  0  0  0  0  0
    1.2322   10.2134    0.0000 C   0  0  0  0  0  0  0  0  0  0  0  0
   -2.2447    6.3519    0.0000 C   0  0  0  0  0  0  0  0  0  0  0  0
   -2.5565    4.8847    0.0000 N   0  0  0  0  0  0  0  0  0  0  0  0
   -0.7500    1.2990    0.0000 C   0  0  0  0  0  0  0  0  0  0  0  0
    0.7500    1.2990    0.0000 C   0  0  0  0  0  0  0  0  0  0  0  0
  1  2  3  0
  2  3  1  0
  3  4  2  0
  4  5  1  0
  5  6  2  0
  6  7  1  0
  7  8  1  0
  8  9  1  0
  8 10  2  0
 10 11  1  0
 11 12  2  0
 12 13  1  0
 13 14  2  0
 14 15  1  0
 15 16  1  0
 16 17  1  0
 17 18  1  0
 18 19  1  0
 19 20  1  0
 20 21  1  0
 14 22  1  0
 22 23  2  0
 10 24  1  0
 24 25  2  0
 25  3  1  0
 24  6  1  0
 23 11  1  0
 21 16  1  0
M  END
>  <Synonyms>  (389) 
AZ-11548415|AZD-1080

>  <Research Codes>  (389) 
AZ-11548415|AZD-1080

>  <Phase>  (389) 
1

>  <Applicants>  (389) 
nan

>  <USAN Stem>  (389) 
nan

>  <USAN Year>  (389) 
nan

>  <USAN Stem Definition>  (389) 
nan

>  <USAN Stem Substem>  (389) 
nan

>  <First Approval>  (389) 
nan

>  <ATC Codes>  (389) 
nan

>  <Level 4 ATC Codes>  (389) 
nan

>  <Level 3 ATC Codes>  (389) 
nan

>  <Level 2 ATC Codes>  (389) 
nan

>  <Level 1 ATC Codes>  (389) 
nan

>  <Indication Class>  (389) 
nan

>  <Patent>  (389) 
nan

>  <Drug Type>  (389) 
1:Synthetic Small Molecule

>  <Passes Rule of Five>  (389) 
True

>  <First In Class>  (389) 
False

>  <Chirality>  (389) 
Achiral Molecule

>  <Prodrug>  (389) 
False

>  <Oral>  (389) 
False

>  <Parenteral>  (389) 
False

>  <Topical>  (389) 
False

>  <Black Box>  (389) 
False

>  <Availability Type>  (389) 
Unknown

>  <Withdrawn Year>  (389) 
nan

>  <Withdrawn Reason>  (389) 
nan

>  <Withdrawn Country>  (389) 
nan

>  <Withdrawn Class>  (389) 
nan

>  <SMILES>  (389) 
N#Cc1ccc2[nH]c(O)c(-c3ccc(CN4CCOCC4)cn3)c2c1

>  <InChi Key>  (389) 
BLTVBQXJFVRPFK-UHFFFAOYSA-N

$$$$
CHEMBL190333
     RDKit          2D

 32 35  0  0  0  0  0  0  0  0999 V2000
    8.9417   -8.1543    0.0000 O   0  0  0  0  0  0  0  0  0  0  0  0
    7.5714   -7.5442    0.0000 C   0  0  0  0  0  0  0  0  0  0  0  0
    7.4146   -6.0524    0.0000 C   0  0  0  0  0  0  0  0  0  0  0  0
    6.0443   -5.4423    0.0000 C   0  0  0  0  0  0  0  0  0  0  0  0
    4.6740   -4.8322    0.0000 C   0  0  0  0  0  0  0  0  0  0  0  0
    3.3037   -4.2221    0.0000 C   0  0  0  0  0  0  0  0  0  0  0  0
    2.9918   -2.7549    0.0000 N   0  0  0  0  0  0  0  0  0  0  0  0
    1.5000   -2.5981    0.0000 C   0  0  0  0  0  0  0  0  0  0  0  0
    0.7500   -1.2990    0.0000 C   0  0  0  0  0  0  0  0  0  0  0  0
    1.5000    0.0000    0.0000 C   0  0  0  0  0  0  0  0  0  0  0  0
    0.7500    1.2990    0.0000 C   0  0  0  0  0  0  0  0  0  0  0  0
   -0.7500    1.2990    0.0000 C   0  0  0  0  0  0  0  0  0  0  0  0
   -1.5000    2.5981    0.0000 F   0  0  0  0  0  0  0  0  0  0  0  0
   -1.5000    0.0000    0.0000 C   0  0  0  0  0  0  0  0  0  0  0  0
   -0.7500   -1.2990    0.0000 C   0  0  0  0  0  0  0  0  0  0  0  0
    0.8899   -3.9684    0.0000 C   0  0  0  0  0  0  0  0  0  0  0  0
   -0.5773   -4.2803    0.0000 C   0  0  0  0  0  0  0  0  0  0  0  0
   -1.5810   -3.1655    0.0000 C   0  0  0  0  0  0  0  0  0  0  0  0
   -3.0482   -3.4774    0.0000 C   0  0  0  0  0  0  0  0  0  0  0  0
   -3.5118   -4.9040    0.0000 N   0  0  0  0  0  0  0  0  0  0  0  0
   -2.5081   -6.0187    0.0000 C   0  0  0  0  0  0  0  0  0  0  0  0
   -1.0409   -5.7068    0.0000 C   0  0  0  0  0  0  0  0  0  0  0  0
    2.0046   -4.9721    0.0000 N   0  0  0  0  0  0  0  0  0  0  0  0
    1.8478   -6.4639    0.0000 C   0  0  0  0  0  0  0  0  0  0  0  0
    3.0613   -7.3456    0.0000 C   0  0  0  0  0  0  0  0  0  0  0  0
    2.9046   -8.8373    0.0000 C   0  0  0  0  0  0  0  0  0  0  0  0
    4.1181   -9.7190    0.0000 C   0  0  0  0  0  0  0  0  0  0  0  0
    3.9613  -11.2108    0.0000 C   0  0  0  0  0  0  0  0  0  0  0  0
    5.1748  -12.0925    0.0000 C   0  0  0  0  0  0  0  0  0  0  0  0
    6.5451  -11.4824    0.0000 C   0  0  0  0  0  0  0  0  0  0  0  0
    6.7019   -9.9906    0.0000 C   0  0  0  0  0  0  0  0  0  0  0  0
    5.4884   -9.1089    0.0000 C   0  0  0  0  0  0  0  0  0  0  0  0
  1  2  1  0
  2  3  1  0
  3  4  1  0
  4  5  3  0
  5  6  1  0
  6  7  2  0
  7  8  1  0
  8  9  1  0
  9 10  2  0
 10 11  1  0
 11 12  2  0
 12 13  1  0
 12 14  1  0
 14 15  2  0
  8 16  2  0
 16 17  1  0
 17 18  2  0
 18 19  1  0
 19 20  2  0
 20 21  1  0
 21 22  2  0
 16 23  1  0
 23 24  1  0
 24 25  1  0
 25 26  1  0
 26 27  1  0
 27 28  2  0
 28 29  1  0
 29 30  2  0
 30 31  1  0
 31 32  2  0
 23  6  1  0
 32 27  1  0
 15  9  1  0
 22 17  1  0
M  END
>  <Synonyms>  (390) 
RWJ-67657

>  <Research Codes>  (390) 
RWJ-67657

>  <Phase>  (390) 
1

>  <Applicants>  (390) 
nan

>  <USAN Stem>  (390) 
nan

>  <USAN Year>  (390) 
nan

>  <USAN Stem Definition>  (390) 
nan

>  <USAN Stem Substem>  (390) 
nan

>  <First Approval>  (390) 
nan

>  <ATC Codes>  (390) 
nan

>  <Level 4 ATC Codes>  (390) 
nan

>  <Level 3 ATC Codes>  (390) 
nan

>  <Level 2 ATC Codes>  (390) 
nan

>  <Level 1 ATC Codes>  (390) 
nan

>  <Indication Class>  (390) 
nan

>  <Patent>  (390) 
nan

>  <Drug Type>  (390) 
1:Synthetic Small Molecule

>  <Passes Rule of Five>  (390) 
False

>  <First In Class>  (390) 
False

>  <Chirality>  (390) 
Achiral Molecule

>  <Prodrug>  (390) 
False

>  <Oral>  (390) 
False

>  <Parenteral>  (390) 
False

>  <Topical>  (390) 
False

>  <Black Box>  (390) 
False

>  <Availability Type>  (390) 
Unknown

>  <Withdrawn Year>  (390) 
nan

>  <Withdrawn Reason>  (390) 
nan

>  <Withdrawn Country>  (390) 
nan

>  <Withdrawn Class>  (390) 
nan

>  <SMILES>  (390) 
OCCC#Cc1nc(-c2ccc(F)cc2)c(-c2ccncc2)n1CCCc1ccccc1

>  <InChi Key>  (390) 
QSUSKMBNZQHHPA-UHFFFAOYSA-N

$$$$
CHEMBL152067
     RDKit          2D

 26 27  0  0  0  0  0  0  0  0999 V2000
    9.5490   -3.1471    0.0000 C   0  0  0  0  0  0  0  0  0  0  0  0
    8.2500   -3.8971    0.0000 C   0  0  0  0  0  0  0  0  0  0  0  0
    6.9510   -4.6471    0.0000 C   0  0  0  0  0  0  0  0  0  0  0  0
    9.0000   -5.1962    0.0000 C   0  0  0  0  0  0  0  0  0  0  0  0
    7.5000   -2.5981    0.0000 N   0  0  0  0  0  0  0  0  0  0  0  0
    6.0000   -2.5981    0.0000 C   0  0  0  0  0  0  0  0  0  0  0  0
    5.2500   -1.2990    0.0000 C   0  0  0  0  0  0  0  0  0  0  0  0
    6.0000    0.0000    0.0000 O   0  0  0  0  0  0  0  0  0  0  0  0
    3.7500   -1.2990    0.0000 C   0  0  0  0  0  0  0  0  0  0  0  0
    3.0000    0.0000    0.0000 O   0  0  0  0  0  0  0  0  0  0  0  0
    1.5000    0.0000    0.0000 C   0  0  0  0  0  0  0  0  0  0  0  0
    0.7500   -1.2990    0.0000 C   0  0  0  0  0  0  0  0  0  0  0  0
   -0.7500   -1.2990    0.0000 C   0  0  0  0  0  0  0  0  0  0  0  0
   -1.5000    0.0000    0.0000 C   0  0  0  0  0  0  0  0  0  0  0  0
   -3.0000    0.0000    0.0000 N   0  0  0  0  0  0  0  0  0  0  0  0
   -3.7500    1.2990    0.0000 C   0  0  0  0  0  0  0  0  0  0  0  0
   -3.0000    2.5981    0.0000 O   0  0  0  0  0  0  0  0  0  0  0  0
   -5.2500    1.2990    0.0000 N   0  0  0  0  0  0  0  0  0  0  0  0
   -6.0000    2.5981    0.0000 C   0  0  0  0  0  0  0  0  0  0  0  0
   -5.2500    3.8971    0.0000 C   0  0  0  0  0  0  0  0  0  0  0  0
   -6.0000    5.1962    0.0000 C   0  0  0  0  0  0  0  0  0  0  0  0
   -7.5000    5.1962    0.0000 C   0  0  0  0  0  0  0  0  0  0  0  0
   -8.2500    3.8971    0.0000 C   0  0  0  0  0  0  0  0  0  0  0  0
   -7.5000    2.5981    0.0000 C   0  0  0  0  0  0  0  0  0  0  0  0
   -0.7500    1.2990    0.0000 C   0  0  0  0  0  0  0  0  0  0  0  0
    0.7500    1.2990    0.0000 C   0  0  0  0  0  0  0  0  0  0  0  0
  1  2  1  0
  2  3  1  0
  2  4  1  0
  2  5  1  0
  5  6  1  0
  6  7  1  0
  7  8  1  0
  7  9  1  0
  9 10  1  0
 10 11  1  0
 11 12  2  0
 12 13  1  0
 13 14  2  0
 14 15  1  0
 15 16  1  0
 16 17  2  0
 16 18  1  0
 18 19  1  0
 19 20  1  0
 20 21  1  0
 21 22  1  0
 22 23  1  0
 23 24  1  0
 14 25  1  0
 25 26  2  0
 26 11  1  0
 24 19  1  0
M  END
>  <Synonyms>  (391) 
TALINOLOL

>  <Research Codes>  (391) 
nan

>  <Phase>  (391) 
1

>  <Applicants>  (391) 
nan

>  <USAN Stem>  (391) 
'-olol'

>  <USAN Year>  (391) 
nan

>  <USAN Stem Definition>  (391) 
beta-blockers (propranolol type)

>  <USAN Stem Substem>  (391) 
'-olol(-olol)'

>  <First Approval>  (391) 
nan

>  <ATC Codes>  (391) 
C07AB13

>  <Level 4 ATC Codes>  (391) 
C07AB - Beta blocking agents, selective

>  <Level 3 ATC Codes>  (391) 
C07A - BETA BLOCKING AGENTS

>  <Level 2 ATC Codes>  (391) 
C07 - BETA BLOCKING AGENTS

>  <Level 1 ATC Codes>  (391) 
C - CARDIOVASCULAR SYSTEM

>  <Indication Class>  (391) 
nan

>  <Patent>  (391) 
nan

>  <Drug Type>  (391) 
1:Synthetic Small Molecule

>  <Passes Rule of Five>  (391) 
True

>  <First In Class>  (391) 
False

>  <Chirality>  (391) 
Racemic Mixture

>  <Prodrug>  (391) 
False

>  <Oral>  (391) 
False

>  <Parenteral>  (391) 
False

>  <Topical>  (391) 
False

>  <Black Box>  (391) 
False

>  <Availability Type>  (391) 
Unknown

>  <Withdrawn Year>  (391) 
nan

>  <Withdrawn Reason>  (391) 
nan

>  <Withdrawn Country>  (391) 
nan

>  <Withdrawn Class>  (391) 
nan

>  <SMILES>  (391) 
CC(C)(C)NCC(O)COc1ccc(NC(=O)NC2CCCCC2)cc1

>  <InChi Key>  (391) 
MXFWWQICDIZSOA-UHFFFAOYSA-N

$$$$
CHEMBL191482
     RDKit          2D

 23 24  0  0  0  0  0  0  0  0999 V2000
    1.5000   -7.7942    0.0000 C   0  0  0  0  0  0  0  0  0  0  0  0
    0.7500   -6.4952    0.0000 C   0  0  0  0  0  0  0  0  0  0  0  0
   -0.7500   -6.4952    0.0000 C   0  0  0  0  0  0  0  0  0  0  0  0
    1.5000   -5.1962    0.0000 C   0  0  0  0  0  0  0  0  0  0  0  0
    0.7500   -3.8971    0.0000 C   0  0  0  0  0  0  0  0  0  0  0  0
   -0.7500   -3.8971    0.0000 O   0  0  0  0  0  0  0  0  0  0  0  0
    1.5000   -2.5981    0.0000 N   0  0  0  0  0  0  0  0  0  0  0  0
    0.7500   -1.2990    0.0000 C   0  0  0  0  0  0  0  0  0  0  0  0
    1.5000    0.0000    0.0000 C   0  0  0  0  0  0  0  0  0  0  0  0
    0.7500    1.2990    0.0000 C   0  0  0  0  0  0  0  0  0  0  0  0
   -0.7500    1.2990    0.0000 C   0  0  0  0  0  0  0  0  0  0  0  0
   -1.5000    2.5981    0.0000 C   0  0  0  0  0  0  0  0  0  0  0  0
   -3.0000    2.5981    0.0000 O   0  0  0  0  0  0  0  0  0  0  0  0
   -0.7500    3.8971    0.0000 N   0  0  0  0  0  0  0  0  0  0  0  0
   -1.5000    5.1962    0.0000 O   0  0  0  0  0  0  0  0  0  0  0  0
   -1.5000    0.0000    0.0000 C   0  0  0  0  0  0  0  0  0  0  0  0
   -0.7500   -1.2990    0.0000 C   0  0  0  0  0  0  0  0  0  0  0  0
    3.0000   -5.1962    0.0000 C   0  0  0  0  0  0  0  0  0  0  0  0
    3.7500   -6.4952    0.0000 C   0  0  0  0  0  0  0  0  0  0  0  0
    5.2500   -6.4952    0.0000 C   0  0  0  0  0  0  0  0  0  0  0  0
    6.0000   -5.1962    0.0000 C   0  0  0  0  0  0  0  0  0  0  0  0
    5.2500   -3.8971    0.0000 C   0  0  0  0  0  0  0  0  0  0  0  0
    3.7500   -3.8971    0.0000 C   0  0  0  0  0  0  0  0  0  0  0  0
  1  2  1  0
  2  3  1  0
  2  4  1  0
  4  5  1  0
  5  6  2  0
  5  7  1  0
  7  8  1  0
  8  9  2  0
  9 10  1  0
 10 11  2  0
 11 12  1  0
 12 13  1  0
 12 14  2  3
 14 15  1  0
 11 16  1  0
 16 17  2  0
  4 18  1  0
 18 19  2  0
 19 20  1  0
 20 21  2  0
 21 22  1  0
 22 23  2  0
 17  8  1  0
 23 18  1  0
M  END
>  <Synonyms>  (392) 
(S)-HDAC 42|(S)-HDAC-42|AR-42|AR42

>  <Research Codes>  (392) 
(S)-HDAC 42|(S)-HDAC-42|AR42

>  <Phase>  (392) 
1

>  <Applicants>  (392) 
nan

>  <USAN Stem>  (392) 
nan

>  <USAN Year>  (392) 
nan

>  <USAN Stem Definition>  (392) 
nan

>  <USAN Stem Substem>  (392) 
nan

>  <First Approval>  (392) 
nan

>  <ATC Codes>  (392) 
nan

>  <Level 4 ATC Codes>  (392) 
nan

>  <Level 3 ATC Codes>  (392) 
nan

>  <Level 2 ATC Codes>  (392) 
nan

>  <Level 1 ATC Codes>  (392) 
nan

>  <Indication Class>  (392) 
nan

>  <Patent>  (392) 
nan

>  <Drug Type>  (392) 
1:Synthetic Small Molecule

>  <Passes Rule of Five>  (392) 
True

>  <First In Class>  (392) 
False

>  <Chirality>  (392) 
Single Stereoisomer

>  <Prodrug>  (392) 
False

>  <Oral>  (392) 
False

>  <Parenteral>  (392) 
False

>  <Topical>  (392) 
False

>  <Black Box>  (392) 
False

>  <Availability Type>  (392) 
Unknown

>  <Withdrawn Year>  (392) 
nan

>  <Withdrawn Reason>  (392) 
nan

>  <Withdrawn Country>  (392) 
nan

>  <Withdrawn Class>  (392) 
nan

>  <SMILES>  (392) 
CC(C)[C@H](C(=O)Nc1ccc(C(=O)NO)cc1)c1ccccc1

>  <InChi Key>  (392) 
LAMIXXKAWNLXOC-UHFFFAOYSA-N

$$$$
CHEMBL258940
     RDKit          2D

 27 30  0  0  0  0  0  0  0  0999 V2000
   -1.5000   -7.7942    0.0000 C   0  0  0  0  0  0  0  0  0  0  0  0
   -0.7500   -6.4952    0.0000 N   0  0  0  0  0  0  0  0  0  0  0  0
   -1.5000   -5.1962    0.0000 C   0  0  0  0  0  0  0  0  0  0  0  0
   -0.7500   -3.8971    0.0000 C   0  0  0  0  0  0  0  0  0  0  0  0
    0.7500   -3.8971    0.0000 C   0  0  0  0  0  0  0  0  0  0  0  0
    1.5000   -2.5981    0.0000 N   0  0  0  0  0  0  0  0  0  0  0  0
    0.7500   -1.2990    0.0000 C   0  0  0  0  0  0  0  0  0  0  0  0
    1.5000    0.0000    0.0000 N   0  0  0  0  0  0  0  0  0  0  0  0
    0.7500    1.2990    0.0000 C   0  0  0  0  0  0  0  0  0  0  0  0
   -0.7500    1.2990    0.0000 C   0  0  0  0  0  0  0  0  0  0  0  0
   -1.5000    2.5981    0.0000 N   0  0  0  0  0  0  0  0  0  0  0  0
   -3.0000    2.5981    0.0000 C   0  0  0  0  0  0  0  0  0  0  0  0
   -3.7500    1.2990    0.0000 N   0  0  0  0  0  0  0  0  0  0  0  0
   -3.0000    0.0000    0.0000 C   0  0  0  0  0  0  0  0  0  0  0  0
   -3.7500   -1.2990    0.0000 N   0  0  0  0  0  0  0  0  0  0  0  0
   -5.2500   -1.2990    0.0000 C   0  0  0  0  0  0  0  0  0  0  0  0
   -6.0000    0.0000    0.0000 C   0  0  0  0  0  0  0  0  0  0  0  0
   -7.5000    0.0000    0.0000 C   0  0  0  0  0  0  0  0  0  0  0  0
   -8.2500   -1.2990    0.0000 C   0  0  0  0  0  0  0  0  0  0  0  0
   -9.7500   -1.2990    0.0000 F   0  0  0  0  0  0  0  0  0  0  0  0
   -7.5000   -2.5981    0.0000 C   0  0  0  0  0  0  0  0  0  0  0  0
   -8.2500   -3.8971    0.0000 Cl  0  0  0  0  0  0  0  0  0  0  0  0
   -6.0000   -2.5981    0.0000 C   0  0  0  0  0  0  0  0  0  0  0  0
   -1.5000    0.0000    0.0000 C   0  0  0  0  0  0  0  0  0  0  0  0
   -0.7500   -1.2990    0.0000 N   0  0  0  0  0  0  0  0  0  0  0  0
    1.5000   -5.1962    0.0000 C   0  0  0  0  0  0  0  0  0  0  0  0
    0.7500   -6.4952    0.0000 C   0  0  0  0  0  0  0  0  0  0  0  0
  1  2  1  0
  2  3  1  0
  3  4  1  0
  4  5  1  0
  5  6  1  0
  6  7  2  3
  7  8  1  0
  8  9  1  0
  9 10  2  0
 10 11  1  0
 11 12  2  0
 12 13  1  0
 13 14  1  0
 14 15  2  3
 15 16  1  0
 16 17  2  0
 17 18  1  0
 18 19  2  0
 19 20  1  0
 19 21  1  0
 21 22  1  0
 21 23  2  0
 14 24  1  0
 24 25  2  0
  5 26  1  0
 26 27  1  0
 27  2  1  0
 25  7  1  0
 24 10  1  0
 23 16  1  0
M  END
>  <Synonyms>  (393) 
BIBX 1382|BIBX-1382|FALNIDAMOL

>  <Research Codes>  (393) 
BIBX 1382|BIBX-1382

>  <Phase>  (393) 
1

>  <Applicants>  (393) 
nan

>  <USAN Stem>  (393) 
nan

>  <USAN Year>  (393) 
nan

>  <USAN Stem Definition>  (393) 
nan

>  <USAN Stem Substem>  (393) 
nan

>  <First Approval>  (393) 
nan

>  <ATC Codes>  (393) 
nan

>  <Level 4 ATC Codes>  (393) 
nan

>  <Level 3 ATC Codes>  (393) 
nan

>  <Level 2 ATC Codes>  (393) 
nan

>  <Level 1 ATC Codes>  (393) 
nan

>  <Indication Class>  (393) 
nan

>  <Patent>  (393) 
nan

>  <Drug Type>  (393) 
1:Synthetic Small Molecule

>  <Passes Rule of Five>  (393) 
True

>  <First In Class>  (393) 
False

>  <Chirality>  (393) 
Achiral Molecule

>  <Prodrug>  (393) 
False

>  <Oral>  (393) 
False

>  <Parenteral>  (393) 
False

>  <Topical>  (393) 
False

>  <Black Box>  (393) 
False

>  <Availability Type>  (393) 
Unknown

>  <Withdrawn Year>  (393) 
nan

>  <Withdrawn Reason>  (393) 
nan

>  <Withdrawn Country>  (393) 
nan

>  <Withdrawn Class>  (393) 
nan

>  <SMILES>  (393) 
CN1CCC(Nc2ncc3ncnc(Nc4ccc(F)c(Cl)c4)c3n2)CC1

>  <InChi Key>  (393) 
FTFRZXFNZVCRSK-UHFFFAOYSA-N

$$$$
CHEMBL463981
     RDKit          2D

 22 22  0  0  0  0  0  0  0  0999 V2000
    2.7760   -1.5000    0.0000 O   0  0  0  0  0  0  0  0  0  0  0  0
    2.7760    0.0000    0.0000 S   0  0  0  0  0  0  0  0  0  0  0  0
    2.7760    1.5000    0.0000 O   0  0  0  0  0  0  0  0  0  0  0  0
    4.2760    0.0000    0.0000 N   0  0  0  0  0  0  0  0  0  0  0  0
    5.0260    1.2990    0.0000 C   0  0  0  0  0  0  0  0  0  0  0  0
    4.2760    2.5981    0.0000 C   0  0  0  0  0  0  0  0  0  0  0  0
    5.0260    3.8971    0.0000 O   0  0  0  0  0  0  0  0  0  0  0  0
    6.5260    1.2990    0.0000 C   0  0  0  0  0  0  0  0  0  0  0  0
    7.2760    2.5981    0.0000 C   0  0  0  0  0  0  0  0  0  0  0  0
    8.0260    3.8971    0.0000 F   0  0  0  0  0  0  0  0  0  0  0  0
    8.5750    1.8481    0.0000 F   0  0  0  0  0  0  0  0  0  0  0  0
    5.9769    3.3481    0.0000 F   0  0  0  0  0  0  0  0  0  0  0  0
    7.2760   -0.0000    0.0000 C   0  0  0  0  0  0  0  0  0  0  0  0
    8.0260   -1.2990    0.0000 F   0  0  0  0  0  0  0  0  0  0  0  0
    8.5750    0.7500    0.0000 F   0  0  0  0  0  0  0  0  0  0  0  0
    5.9769   -0.7500    0.0000 F   0  0  0  0  0  0  0  0  0  0  0  0
    1.2760    0.0000    0.0000 C   0  0  0  0  0  0  0  0  0  0  0  0
    0.3943    1.2135    0.0000 C   0  0  0  0  0  0  0  0  0  0  0  0
   -1.0323    0.7500    0.0000 C   0  0  0  0  0  0  0  0  0  0  0  0
   -1.0323   -0.7500    0.0000 C   0  0  0  0  0  0  0  0  0  0  0  0
   -2.2458   -1.6317    0.0000 Cl  0  0  0  0  0  0  0  0  0  0  0  0
    0.3943   -1.2135    0.0000 S   0  0  0  0  0  0  0  0  0  0  0  0
  1  2  2  0
  2  3  2  0
  2  4  1  0
  4  5  1  0
  5  6  1  6
  6  7  1  0
  5  8  1  0
  8  9  1  0
  9 10  1  0
  9 11  1  0
  9 12  1  0
  8 13  1  0
 13 14  1  0
 13 15  1  0
 13 16  1  0
  2 17  1  0
 17 18  2  0
 18 19  1  0
 19 20  2  0
 20 21  1  0
 20 22  1  0
 22 17  1  0
M  END
>  <Synonyms>  (394) 
BEGACESTAT|GSI-953

>  <Research Codes>  (394) 
GSI-953

>  <Phase>  (394) 
1

>  <Applicants>  (394) 
nan

>  <USAN Stem>  (394) 
'-stat'

>  <USAN Year>  (394) 
2005.0

>  <USAN Stem Definition>  (394) 
enzyme inhibitors: gamma secretase inhibitors

>  <USAN Stem Substem>  (394) 
'-stat(-stat (-gacestat))'

>  <First Approval>  (394) 
nan

>  <ATC Codes>  (394) 
nan

>  <Level 4 ATC Codes>  (394) 
nan

>  <Level 3 ATC Codes>  (394) 
nan

>  <Level 2 ATC Codes>  (394) 
nan

>  <Level 1 ATC Codes>  (394) 
nan

>  <Indication Class>  (394) 
nan

>  <Patent>  (394) 
nan

>  <Drug Type>  (394) 
1:Synthetic Small Molecule

>  <Passes Rule of Five>  (394) 
True

>  <First In Class>  (394) 
False

>  <Chirality>  (394) 
Single Stereoisomer

>  <Prodrug>  (394) 
False

>  <Oral>  (394) 
False

>  <Parenteral>  (394) 
False

>  <Topical>  (394) 
False

>  <Black Box>  (394) 
False

>  <Availability Type>  (394) 
Unknown

>  <Withdrawn Year>  (394) 
nan

>  <Withdrawn Reason>  (394) 
nan

>  <Withdrawn Country>  (394) 
nan

>  <Withdrawn Class>  (394) 
nan

>  <SMILES>  (394) 
O=S(=O)(N[C@H](CO)C(C(F)(F)F)C(F)(F)F)c1ccc(Cl)s1

>  <InChi Key>  (394) 
PSXOKXJMVRSARX-SCSAIBSYSA-N

$$$$
CHEMBL3545330
     RDKit          2D

 22 24  0  0  0  0  0  0  0  0999 V2000
    1.5000    0.0000    0.0000 C   0  0  0  0  0  0  0  0  0  0  0  0
    0.7500   -1.2990    0.0000 C   0  0  0  0  0  0  0  0  0  0  0  0
   -0.7500   -1.2990    0.0000 N   0  0  0  0  0  0  0  0  0  0  0  0
   -1.5000    0.0000    0.0000 C   0  0  0  0  0  0  0  0  0  0  0  0
   -3.0000    0.0000    0.0000 N   0  0  0  0  0  0  0  0  0  0  0  0
   -3.7500    1.2990    0.0000 C   0  0  0  0  0  0  0  0  0  0  0  0
   -5.2500    1.2990    0.0000 C   0  0  0  0  0  0  0  0  0  0  0  0
   -6.0000    2.5981    0.0000 C   0  0  0  0  0  0  0  0  0  0  0  0
   -7.5000    2.5981    0.0000 C   0  0  0  0  0  0  0  0  0  0  0  0
   -8.2500    1.2990    0.0000 C   0  0  0  0  0  0  0  0  0  0  0  0
   -9.7500    1.2990    0.0000 C   0  0  0  0  0  0  0  0  0  0  0  0
  -10.5000    2.5981    0.0000 N   0  0  0  0  0  0  0  0  0  0  0  0
  -12.0000    2.5981    0.0000 C   0  0  0  0  0  0  0  0  0  0  0  0
  -12.7500    3.8971    0.0000 N   0  0  0  0  0  0  0  0  0  0  0  0
  -14.2500    3.8971    0.0000 C   0  0  0  0  0  0  0  0  0  0  0  0
  -15.0000    2.5981    0.0000 C   0  0  0  0  0  0  0  0  0  0  0  0
  -14.2500    1.2990    0.0000 C   0  0  0  0  0  0  0  0  0  0  0  0
  -12.7500    1.2990    0.0000 N   0  0  0  0  0  0  0  0  0  0  0  0
   -7.5000    0.0000    0.0000 C   0  0  0  0  0  0  0  0  0  0  0  0
   -6.0000    0.0000    0.0000 C   0  0  0  0  0  0  0  0  0  0  0  0
   -0.7500    1.2990    0.0000 N   0  0  0  0  0  0  0  0  0  0  0  0
    0.7500    1.2990    0.0000 C   0  0  0  0  0  0  0  0  0  0  0  0
  1  2  2  0
  2  3  1  0
  3  4  1  0
  4  5  2  3
  5  6  1  0
  6  7  1  0
  7  8  2  0
  8  9  1  0
  9 10  2  0
 10 11  1  0
 11 12  1  0
 12 13  2  3
 13 14  1  0
 14 15  1  0
 15 16  2  0
 16 17  1  0
 17 18  2  0
 10 19  1  0
 19 20  2  0
  4 21  1  0
 21 22  2  0
 22  1  1  0
 20  7  1  0
 18 13  1  0
M  END
>  <Synonyms>  (395) 
MSX 122|MSX-122

>  <Research Codes>  (395) 
nan

>  <Phase>  (395) 
1

>  <Applicants>  (395) 
nan

>  <USAN Stem>  (395) 
nan

>  <USAN Year>  (395) 
nan

>  <USAN Stem Definition>  (395) 
nan

>  <USAN Stem Substem>  (395) 
nan

>  <First Approval>  (395) 
nan

>  <ATC Codes>  (395) 
nan

>  <Level 4 ATC Codes>  (395) 
nan

>  <Level 3 ATC Codes>  (395) 
nan

>  <Level 2 ATC Codes>  (395) 
nan

>  <Level 1 ATC Codes>  (395) 
nan

>  <Indication Class>  (395) 
nan

>  <Patent>  (395) 
nan

>  <Drug Type>  (395) 
1:Synthetic Small Molecule

>  <Passes Rule of Five>  (395) 
True

>  <First In Class>  (395) 
False

>  <Chirality>  (395) 
Achiral Molecule

>  <Prodrug>  (395) 
False

>  <Oral>  (395) 
False

>  <Parenteral>  (395) 
False

>  <Topical>  (395) 
False

>  <Black Box>  (395) 
False

>  <Availability Type>  (395) 
Unknown

>  <Withdrawn Year>  (395) 
nan

>  <Withdrawn Reason>  (395) 
nan

>  <Withdrawn Country>  (395) 
nan

>  <Withdrawn Class>  (395) 
nan

>  <SMILES>  (395) 
c1cnc(NCc2ccc(CNc3ncccn3)cc2)nc1

>  <InChi Key>  (395) 
PXZXYRKDDXKDTK-UHFFFAOYSA-N

$$$$
CHEMBL2137530
     RDKit          2D

 25 28  0  0  0  0  0  0  0  0999 V2000
    1.5000    0.0000    0.0000 C   0  0  0  0  0  0  0  0  0  0  0  0
    0.7500   -1.2990    0.0000 C   0  0  0  0  0  0  0  0  0  0  0  0
   -0.7500   -1.2990    0.0000 C   0  0  0  0  0  0  0  0  0  0  0  0
   -1.5000    0.0000    0.0000 C   0  0  0  0  0  0  0  0  0  0  0  0
   -2.9672    0.3119    0.0000 C   0  0  0  0  0  0  0  0  0  0  0  0
   -4.0819   -0.6918    0.0000 C   0  0  0  0  0  0  0  0  0  0  0  0
   -5.5085   -0.2283    0.0000 C   0  0  0  0  0  0  0  0  0  0  0  0
   -6.6232   -1.2320    0.0000 N   0  0  0  0  0  0  0  0  0  0  0  0
   -8.0498   -0.7685    0.0000 C   0  0  0  0  0  0  0  0  0  0  0  0
   -8.3617    0.6987    0.0000 C   0  0  0  0  0  0  0  0  0  0  0  0
   -9.7883    1.1623    0.0000 C   0  0  0  0  0  0  0  0  0  0  0  0
  -10.9030    0.1586    0.0000 C   0  0  0  0  0  0  0  0  0  0  0  0
  -12.3296    0.6221    0.0000 N   0  0  0  0  0  0  0  0  0  0  0  0
  -12.6414    2.0893    0.0000 C   0  0  0  0  0  0  0  0  0  0  0  0
  -11.5267    3.0930    0.0000 C   0  0  0  0  0  0  0  0  0  0  0  0
  -11.8386    4.5602    0.0000 C   0  0  0  0  0  0  0  0  0  0  0  0
  -13.2652    5.0238    0.0000 N   0  0  0  0  0  0  0  0  0  0  0  0
  -14.3799    4.0201    0.0000 C   0  0  0  0  0  0  0  0  0  0  0  0
  -14.0680    2.5529    0.0000 C   0  0  0  0  0  0  0  0  0  0  0  0
  -10.5911   -1.3086    0.0000 C   0  0  0  0  0  0  0  0  0  0  0  0
   -9.1645   -1.7722    0.0000 C   0  0  0  0  0  0  0  0  0  0  0  0
   -3.1240    1.8037    0.0000 C   0  0  0  0  0  0  0  0  0  0  0  0
   -1.7537    2.4138    0.0000 N   0  0  0  0  0  0  0  0  0  0  0  0
   -0.7500    1.2990    0.0000 C   0  0  0  0  0  0  0  0  0  0  0  0
    0.7500    1.2990    0.0000 C   0  0  0  0  0  0  0  0  0  0  0  0
  1  2  2  0
  2  3  1  0
  3  4  2  0
  4  5  1  0
  5  6  1  0
  6  7  1  0
  7  8  1  0
  8  9  1  0
  9 10  2  0
 10 11  1  0
 11 12  2  0
 12 13  1  0
 13 14  2  3
 14 15  1  0
 15 16  2  0
 16 17  1  0
 17 18  1  0
 18 19  2  0
 12 20  1  0
 20 21  2  0
  5 22  2  0
 22 23  1  0
 23 24  1  0
 24 25  2  0
 25  1  1  0
 24  4  1  0
 21  9  1  0
 19 14  1  0
M  END
>  <Synonyms>  (396) 
JNJ-26854165|SERDEMETAN|Serdemetan

>  <Research Codes>  (396) 
JNJ-26854165

>  <Phase>  (396) 
1

>  <Applicants>  (396) 
nan

>  <USAN Stem>  (396) 
nan

>  <USAN Year>  (396) 
nan

>  <USAN Stem Definition>  (396) 
nan

>  <USAN Stem Substem>  (396) 
nan

>  <First Approval>  (396) 
nan

>  <ATC Codes>  (396) 
nan

>  <Level 4 ATC Codes>  (396) 
nan

>  <Level 3 ATC Codes>  (396) 
nan

>  <Level 2 ATC Codes>  (396) 
nan

>  <Level 1 ATC Codes>  (396) 
nan

>  <Indication Class>  (396) 
nan

>  <Patent>  (396) 
nan

>  <Drug Type>  (396) 
1:Synthetic Small Molecule

>  <Passes Rule of Five>  (396) 
True

>  <First In Class>  (396) 
False

>  <Chirality>  (396) 
Achiral Molecule

>  <Prodrug>  (396) 
False

>  <Oral>  (396) 
False

>  <Parenteral>  (396) 
False

>  <Topical>  (396) 
False

>  <Black Box>  (396) 
False

>  <Availability Type>  (396) 
Unknown

>  <Withdrawn Year>  (396) 
nan

>  <Withdrawn Reason>  (396) 
nan

>  <Withdrawn Country>  (396) 
nan

>  <Withdrawn Class>  (396) 
nan

>  <SMILES>  (396) 
c1ccc2c(CCNc3ccc(Nc4ccncc4)cc3)c[nH]c2c1

>  <InChi Key>  (396) 
CEGSUKYESLWKJP-UHFFFAOYSA-N

$$$$
CHEMBL8809
     RDKit          2D

 22 23  0  0  0  0  0  0  0  0999 V2000
   -3.2127   -5.8491    0.0000 C   0  0  0  0  0  0  0  0  0  0  0  0
   -1.7455   -5.5373    0.0000 C   0  0  0  0  0  0  0  0  0  0  0  0
   -0.7418   -6.6520    0.0000 N   0  0  0  0  0  0  0  0  0  0  0  0
   -1.0537   -8.1192    0.0000 C   0  0  0  0  0  0  0  0  0  0  0  0
    0.2454   -8.8692    0.0000 C   0  0  0  0  0  0  0  0  0  0  0  0
    1.3601   -7.8655    0.0000 C   0  0  0  0  0  0  0  0  0  0  0  0
    0.7500   -6.4952    0.0000 C   0  0  0  0  0  0  0  0  0  0  0  0
    1.5000   -5.1962    0.0000 C   0  0  0  0  0  0  0  0  0  0  0  0
    0.7500   -3.8971    0.0000 N   0  0  0  0  0  0  0  0  0  0  0  0
    1.5000   -2.5981    0.0000 C   0  0  0  0  0  0  0  0  0  0  0  0
    3.0000   -2.5981    0.0000 O   0  0  0  0  0  0  0  0  0  0  0  0
    0.7500   -1.2990    0.0000 C   0  0  0  0  0  0  0  0  0  0  0  0
    1.5000    0.0000    0.0000 C   0  0  0  0  0  0  0  0  0  0  0  0
    3.0000    0.0000    0.0000 O   0  0  0  0  0  0  0  0  0  0  0  0
    0.7500    1.2990    0.0000 C   0  0  0  0  0  0  0  0  0  0  0  0
    1.5000    2.5981    0.0000 Cl  0  0  0  0  0  0  0  0  0  0  0  0
   -0.7500    1.2990    0.0000 C   0  0  0  0  0  0  0  0  0  0  0  0
   -1.5000    0.0000    0.0000 C   0  0  0  0  0  0  0  0  0  0  0  0
   -3.0000    0.0000    0.0000 Cl  0  0  0  0  0  0  0  0  0  0  0  0
   -0.7500   -1.2990    0.0000 C   0  0  0  0  0  0  0  0  0  0  0  0
   -1.5000   -2.5981    0.0000 O   0  0  0  0  0  0  0  0  0  0  0  0
   -3.0000   -2.5981    0.0000 C   0  0  0  0  0  0  0  0  0  0  0  0
  1  2  1  0
  2  3  1  0
  3  4  1  0
  4  5  1  0
  5  6  1  0
  6  7  1  0
  7  8  1  6
  8  9  1  0
  9 10  1  0
 10 11  2  0
 10 12  1  0
 12 13  2  0
 13 14  1  0
 13 15  1  0
 15 16  1  0
 15 17  2  0
 17 18  1  0
 18 19  1  0
 18 20  2  0
 20 21  1  0
 21 22  1  0
  7  3  1  0
 20 12  1  0
M  END
>  <Synonyms>  (397) 
RACLOPRIDE

>  <Research Codes>  (397) 
nan

>  <Phase>  (397) 
1

>  <Applicants>  (397) 
nan

>  <USAN Stem>  (397) 
'-pride'

>  <USAN Year>  (397) 
1997.0

>  <USAN Stem Definition>  (397) 
sulpride derivatives

>  <USAN Stem Substem>  (397) 
'-pride(-pride)'

>  <First Approval>  (397) 
nan

>  <ATC Codes>  (397) 
nan

>  <Level 4 ATC Codes>  (397) 
nan

>  <Level 3 ATC Codes>  (397) 
nan

>  <Level 2 ATC Codes>  (397) 
nan

>  <Level 1 ATC Codes>  (397) 
nan

>  <Indication Class>  (397) 
Radioactive Agent

>  <Patent>  (397) 
nan

>  <Drug Type>  (397) 
1:Synthetic Small Molecule

>  <Passes Rule of Five>  (397) 
True

>  <First In Class>  (397) 
False

>  <Chirality>  (397) 
Single Stereoisomer

>  <Prodrug>  (397) 
False

>  <Oral>  (397) 
False

>  <Parenteral>  (397) 
False

>  <Topical>  (397) 
False

>  <Black Box>  (397) 
False

>  <Availability Type>  (397) 
Unknown

>  <Withdrawn Year>  (397) 
nan

>  <Withdrawn Reason>  (397) 
nan

>  <Withdrawn Country>  (397) 
nan

>  <Withdrawn Class>  (397) 
nan

>  <SMILES>  (397) 
CCN1CCC[C@H]1CNC(=O)c1c(O)c(Cl)cc(Cl)c1OC

>  <InChi Key>  (397) 
WAOQONBSWFLFPE-VIFPVBQESA-N

$$$$
CHEMBL1132
     RDKit          2D

 11 12  0  0  0  0  0  0  0  0999 V2000
    1.5000    0.0000    0.0000 C   0  0  0  0  0  0  0  0  0  0  0  0
    0.7500   -1.2990    0.0000 C   0  0  0  0  0  0  0  0  0  0  0  0
   -0.7500   -1.2990    0.0000 N   0  0  0  0  0  0  0  0  0  0  0  0
   -1.5000    0.0000    0.0000 C   0  0  0  0  0  0  0  0  0  0  0  0
   -0.7500    1.2990    0.0000 C   0  0  0  0  0  0  0  0  0  0  0  0
   -1.5000    2.5981    0.0000 C   0  0  0  0  0  0  0  0  0  0  0  0
   -2.9918    2.7549    0.0000 C   0  0  0  0  0  0  0  0  0  0  0  0
   -3.3037    4.2221    0.0000 C   0  0  0  0  0  0  0  0  0  0  0  0
   -2.0046    4.9721    0.0000 C   0  0  0  0  0  0  0  0  0  0  0  0
   -0.8899    3.9684    0.0000 N   0  0  0  0  0  0  0  0  0  0  0  0
    0.7500    1.2990    0.0000 C   0  0  0  0  0  0  0  0  0  0  0  0
  1  2  2  0
  2  3  1  0
  3  4  2  0
  4  5  1  0
  5  6  1  0
  6  7  1  0
  7  8  1  0
  8  9  1  0
  9 10  1  0
  5 11  2  0
 11  1  1  0
 10  6  1  0
M  END
>  <Synonyms>  (398) 
NORNICOTINE

>  <Research Codes>  (398) 
nan

>  <Phase>  (398) 
1

>  <Applicants>  (398) 
nan

>  <USAN Stem>  (398) 
nan

>  <USAN Year>  (398) 
nan

>  <USAN Stem Definition>  (398) 
nan

>  <USAN Stem Substem>  (398) 
nan

>  <First Approval>  (398) 
nan

>  <ATC Codes>  (398) 
nan

>  <Level 4 ATC Codes>  (398) 
nan

>  <Level 3 ATC Codes>  (398) 
nan

>  <Level 2 ATC Codes>  (398) 
nan

>  <Level 1 ATC Codes>  (398) 
nan

>  <Indication Class>  (398) 
nan

>  <Patent>  (398) 
nan

>  <Drug Type>  (398) 
1:Synthetic Small Molecule

>  <Passes Rule of Five>  (398) 
True

>  <First In Class>  (398) 
False

>  <Chirality>  (398) 
Achiral Molecule

>  <Prodrug>  (398) 
False

>  <Oral>  (398) 
False

>  <Parenteral>  (398) 
False

>  <Topical>  (398) 
False

>  <Black Box>  (398) 
False

>  <Availability Type>  (398) 
Unknown

>  <Withdrawn Year>  (398) 
nan

>  <Withdrawn Reason>  (398) 
nan

>  <Withdrawn Country>  (398) 
nan

>  <Withdrawn Class>  (398) 
nan

>  <SMILES>  (398) 
c1cncc(C2CCCN2)c1

>  <InChi Key>  (398) 
MYKUKUCHPMASKF-UHFFFAOYSA-N

$$$$
CHEMBL164660
     RDKit          2D

 14 16  0  0  0  0  0  0  0  0999 V2000
   -3.7527    6.6955    0.0000 O   0  0  0  0  0  0  0  0  0  0  0  0
   -2.6380    5.6918    0.0000 C   0  0  0  0  0  0  0  0  0  0  0  0
   -1.2114    6.1554    0.0000 C   0  0  0  0  0  0  0  0  0  0  0  0
   -0.0967    5.1517    0.0000 C   0  0  0  0  0  0  0  0  0  0  0  0
   -0.4086    3.6844    0.0000 C   0  0  0  0  0  0  0  0  0  0  0  0
    0.7062    2.6807    0.0000 C   0  0  0  0  0  0  0  0  0  0  0  0
    0.3943    1.2135    0.0000 C   0  0  0  0  0  0  0  0  0  0  0  0
    1.2760    0.0000    0.0000 C   0  0  0  0  0  0  0  0  0  0  0  0
    0.3943   -1.2135    0.0000 C   0  0  0  0  0  0  0  0  0  0  0  0
   -1.0323   -0.7500    0.0000 O   0  0  0  0  0  0  0  0  0  0  0  0
   -1.0323    0.7500    0.0000 C   0  0  0  0  0  0  0  0  0  0  0  0
   -2.1470    1.7537    0.0000 C   0  0  0  0  0  0  0  0  0  0  0  0
   -1.8351    3.2209    0.0000 C   0  0  0  0  0  0  0  0  0  0  0  0
   -2.9499    4.2246    0.0000 O   0  0  0  0  0  0  0  0  0  0  0  0
  1  2  2  0
  2  3  1  0
  3  4  2  0
  4  5  1  0
  5  6  2  0
  6  7  1  0
  7  8  1  0
  8  9  2  0
  9 10  1  0
 10 11  1  0
 11 12  1  0
 12 13  2  0
 13 14  1  0
 14  2  1  0
 13  5  1  0
 11  7  2  0
M  END
>  <Synonyms>  (399) 
NSC-404562|PSORALEN

>  <Research Codes>  (399) 
NSC-404562

>  <Phase>  (399) 
1

>  <Applicants>  (399) 
nan

>  <USAN Stem>  (399) 
nan

>  <USAN Year>  (399) 
nan

>  <USAN Stem Definition>  (399) 
nan

>  <USAN Stem Substem>  (399) 
nan

>  <First Approval>  (399) 
nan

>  <ATC Codes>  (399) 
nan

>  <Level 4 ATC Codes>  (399) 
nan

>  <Level 3 ATC Codes>  (399) 
nan

>  <Level 2 ATC Codes>  (399) 
nan

>  <Level 1 ATC Codes>  (399) 
nan

>  <Indication Class>  (399) 
nan

>  <Patent>  (399) 
nan

>  <Drug Type>  (399) 
1:Synthetic Small Molecule

>  <Passes Rule of Five>  (399) 
True

>  <First In Class>  (399) 
False

>  <Chirality>  (399) 
Achiral Molecule

>  <Prodrug>  (399) 
False

>  <Oral>  (399) 
False

>  <Parenteral>  (399) 
False

>  <Topical>  (399) 
False

>  <Black Box>  (399) 
False

>  <Availability Type>  (399) 
Unknown

>  <Withdrawn Year>  (399) 
nan

>  <Withdrawn Reason>  (399) 
nan

>  <Withdrawn Country>  (399) 
nan

>  <Withdrawn Class>  (399) 
nan

>  <SMILES>  (399) 
O=c1ccc2cc3ccoc3cc2o1

>  <InChi Key>  (399) 
ZCCUUQDIBDJBTK-UHFFFAOYSA-N

$$$$
CHEMBL3182621
     RDKit          2D

 25 26  0  0  0  0  0  0  0  0999 V2000
    3.0000    0.0000    0.0000 C   0  0  0  0  0  0  0  0  0  0  0  0
    1.5000    0.0000    0.0000 C   0  0  0  0  0  0  0  0  0  0  0  0
    0.7500   -1.2990    0.0000 C   0  0  0  0  0  0  0  0  0  0  0  0
   -0.7500   -1.2990    0.0000 C   0  0  0  0  0  0  0  0  0  0  0  0
   -1.5000   -2.5981    0.0000 C   0  0  0  0  0  0  0  0  0  0  0  0
   -0.7500   -3.8971    0.0000 O   0  0  0  0  0  0  0  0  0  0  0  0
   -3.0000   -2.5981    0.0000 N   0  0  0  0  0  0  0  0  0  0  0  0
   -3.7500   -3.8971    0.0000 O   0  0  0  0  0  0  0  0  0  0  0  0
   -5.2500   -3.8971    0.0000 C   0  0  0  0  0  0  0  0  0  0  0  0
   -6.0000   -5.1962    0.0000 C   0  0  0  0  0  0  0  0  0  0  0  0
   -7.5000   -5.1962    0.0000 O   0  0  0  0  0  0  0  0  0  0  0  0
   -1.5000    0.0000    0.0000 C   0  0  0  0  0  0  0  0  0  0  0  0
   -3.0000    0.0000    0.0000 N   0  0  0  0  0  0  0  0  0  0  0  0
   -3.7500    1.2990    0.0000 C   0  0  0  0  0  0  0  0  0  0  0  0
   -3.0000    2.5981    0.0000 C   0  0  0  0  0  0  0  0  0  0  0  0
   -3.7500    3.8971    0.0000 C   0  0  0  0  0  0  0  0  0  0  0  0
   -5.2500    3.8971    0.0000 C   0  0  0  0  0  0  0  0  0  0  0  0
   -6.0000    5.1962    0.0000 I   0  0  0  0  0  0  0  0  0  0  0  0
   -6.0000    2.5981    0.0000 C   0  0  0  0  0  0  0  0  0  0  0  0
   -5.2500    1.2990    0.0000 C   0  0  0  0  0  0  0  0  0  0  0  0
   -6.0000    0.0000    0.0000 F   0  0  0  0  0  0  0  0  0  0  0  0
   -0.7500    1.2990    0.0000 N   0  0  0  0  0  0  0  0  0  0  0  0
   -1.5000    2.5981    0.0000 C   0  0  0  0  0  0  0  0  0  0  0  0
    0.7500    1.2990    0.0000 C   0  0  0  0  0  0  0  0  0  0  0  0
    1.5000    2.5981    0.0000 O   0  0  0  0  0  0  0  0  0  0  0  0
  1  2  1  0
  2  3  2  0
  3  4  1  0
  4  5  1  0
  5  6  2  0
  5  7  1  0
  7  8  1  0
  8  9  1  0
  9 10  1  0
 10 11  1  0
  4 12  2  0
 12 13  1  0
 13 14  1  0
 14 15  2  0
 15 16  1  0
 16 17  2  0
 17 18  1  0
 17 19  1  0
 19 20  2  0
 20 21  1  0
 12 22  1  0
 22 23  1  0
 22 24  1  0
 24 25  2  0
 24  2  1  0
 20 14  1  0
M  END
>  <Synonyms>  (400) 
ARRY-424704|ARRY-704|AZD 8330|AZD-8330

>  <Research Codes>  (400) 
ARRY-424704|ARRY-704|AZD-8330

>  <Phase>  (400) 
1

>  <Applicants>  (400) 
nan

>  <USAN Stem>  (400) 
nan

>  <USAN Year>  (400) 
nan

>  <USAN Stem Definition>  (400) 
nan

>  <USAN Stem Substem>  (400) 
nan

>  <First Approval>  (400) 
nan

>  <ATC Codes>  (400) 
nan

>  <Level 4 ATC Codes>  (400) 
nan

>  <Level 3 ATC Codes>  (400) 
nan

>  <Level 2 ATC Codes>  (400) 
nan

>  <Level 1 ATC Codes>  (400) 
nan

>  <Indication Class>  (400) 
nan

>  <Patent>  (400) 
nan

>  <Drug Type>  (400) 
1:Synthetic Small Molecule

>  <Passes Rule of Five>  (400) 
True

>  <First In Class>  (400) 
False

>  <Chirality>  (400) 
Achiral Molecule

>  <Prodrug>  (400) 
False

>  <Oral>  (400) 
False

>  <Parenteral>  (400) 
False

>  <Topical>  (400) 
False

>  <Black Box>  (400) 
False

>  <Availability Type>  (400) 
Unknown

>  <Withdrawn Year>  (400) 
nan

>  <Withdrawn Reason>  (400) 
nan

>  <Withdrawn Country>  (400) 
nan

>  <Withdrawn Class>  (400) 
nan

>  <SMILES>  (400) 
Cc1cc(C(=O)NOCCO)c(Nc2ccc(I)cc2F)n(C)c1=O

>  <InChi Key>  (400) 
RWEVIPRMPFNTLO-UHFFFAOYSA-N

$$$$
CHEMBL49642
     RDKit          2D

 28 31  0  0  0  0  0  0  0  0999 V2000
   -1.8373   -5.6601    0.0000 O   0  0  0  0  0  0  0  0  0  0  0  0
   -2.9520   -4.6564    0.0000 C   0  0  0  0  0  0  0  0  0  0  0  0
   -4.3786   -5.1199    0.0000 N   0  0  0  0  0  0  0  0  0  0  0  0
   -4.6904   -6.5871    0.0000 C   0  0  0  0  0  0  0  0  0  0  0  0
   -6.1170   -7.0506    0.0000 C   0  0  0  0  0  0  0  0  0  0  0  0
   -6.4289   -8.5179    0.0000 C   0  0  0  0  0  0  0  0  0  0  0  0
   -5.3142   -9.5216    0.0000 N   0  0  0  0  0  0  0  0  0  0  0  0
   -3.8876   -9.0580    0.0000 C   0  0  0  0  0  0  0  0  0  0  0  0
   -3.5757   -7.5908    0.0000 C   0  0  0  0  0  0  0  0  0  0  0  0
   -2.6401   -3.1891    0.0000 C   0  0  0  0  0  0  0  0  0  0  0  0
   -3.7548   -2.1855    0.0000 O   0  0  0  0  0  0  0  0  0  0  0  0
   -1.2135   -2.7256    0.0000 C   0  0  0  0  0  0  0  0  0  0  0  0
   -0.0000   -3.6073    0.0000 C   0  0  0  0  0  0  0  0  0  0  0  0
    1.2135   -2.7256    0.0000 N   0  0  0  0  0  0  0  0  0  0  0  0
    2.6401   -3.1891    0.0000 C   0  0  0  0  0  0  0  0  0  0  0  0
    2.9520   -4.6564    0.0000 C   0  0  0  0  0  0  0  0  0  0  0  0
    1.8373   -5.6601    0.0000 C   0  0  0  0  0  0  0  0  0  0  0  0
    2.1491   -7.1273    0.0000 C   0  0  0  0  0  0  0  0  0  0  0  0
    3.5757   -7.5908    0.0000 C   0  0  0  0  0  0  0  0  0  0  0  0
    3.8876   -9.0580    0.0000 Cl  0  0  0  0  0  0  0  0  0  0  0  0
    4.6904   -6.5871    0.0000 C   0  0  0  0  0  0  0  0  0  0  0  0
    4.3786   -5.1199    0.0000 C   0  0  0  0  0  0  0  0  0  0  0  0
    0.7500   -1.2990    0.0000 C   0  0  0  0  0  0  0  0  0  0  0  0
    1.5000    0.0000    0.0000 C   0  0  0  0  0  0  0  0  0  0  0  0
    0.7500    1.2990    0.0000 C   0  0  0  0  0  0  0  0  0  0  0  0
   -0.7500    1.2990    0.0000 C   0  0  0  0  0  0  0  0  0  0  0  0
   -1.5000    0.0000    0.0000 C   0  0  0  0  0  0  0  0  0  0  0  0
   -0.7500   -1.2990    0.0000 C   0  0  0  0  0  0  0  0  0  0  0  0
  1  2  2  0
  2  3  1  0
  3  4  2  3
  4  5  1  0
  5  6  2  0
  6  7  1  0
  7  8  1  0
  8  9  2  0
  2 10  1  0
 10 11  2  0
 10 12  1  0
 12 13  2  0
 13 14  1  0
 14 15  1  0
 15 16  1  0
 16 17  2  0
 17 18  1  0
 18 19  2  0
 19 20  1  0
 19 21  1  0
 21 22  2  0
 14 23  1  0
 23 24  2  0
 24 25  1  0
 25 26  2  0
 26 27  1  0
 27 28  2  0
  9  4  1  0
 28 12  1  0
 22 16  1  0
 28 23  1  0
M  END
>  <Synonyms>  (401) 
D-24851|INDIBULIN|ZIO-301

>  <Research Codes>  (401) 
D-24851|ZIO-301

>  <Phase>  (401) 
1

>  <Applicants>  (401) 
nan

>  <USAN Stem>  (401) 
'-bulin'

>  <USAN Year>  (401) 
2007.0

>  <USAN Stem Definition>  (401) 
antineoplastics (mitotic inhibitors,tubulin binders

>  <USAN Stem Substem>  (401) 
'-bulin(-bulin)'

>  <First Approval>  (401) 
nan

>  <ATC Codes>  (401) 
nan

>  <Level 4 ATC Codes>  (401) 
nan

>  <Level 3 ATC Codes>  (401) 
nan

>  <Level 2 ATC Codes>  (401) 
nan

>  <Level 1 ATC Codes>  (401) 
nan

>  <Indication Class>  (401) 
nan

>  <Patent>  (401) 
nan

>  <Drug Type>  (401) 
1:Synthetic Small Molecule

>  <Passes Rule of Five>  (401) 
True

>  <First In Class>  (401) 
False

>  <Chirality>  (401) 
Achiral Molecule

>  <Prodrug>  (401) 
False

>  <Oral>  (401) 
False

>  <Parenteral>  (401) 
False

>  <Topical>  (401) 
False

>  <Black Box>  (401) 
False

>  <Availability Type>  (401) 
Unknown

>  <Withdrawn Year>  (401) 
nan

>  <Withdrawn Reason>  (401) 
nan

>  <Withdrawn Country>  (401) 
nan

>  <Withdrawn Class>  (401) 
nan

>  <SMILES>  (401) 
O=C(Nc1ccncc1)C(=O)c1cn(Cc2ccc(Cl)cc2)c2ccccc12

>  <InChi Key>  (401) 
SOLIIYNRSAWTSQ-UHFFFAOYSA-N

$$$$
CHEMBL571948
     RDKit          2D

 21 23  0  0  0  0  0  0  0  0999 V2000
  -11.5094    1.4435    0.0000 C   0  0  0  0  0  0  0  0  0  0  0  0
  -10.3946    0.4398    0.0000 C   0  0  0  0  0  0  0  0  0  0  0  0
  -10.7065   -1.0275    0.0000 N   0  0  0  0  0  0  0  0  0  0  0  0
   -8.9681    0.9033    0.0000 C   0  0  0  0  0  0  0  0  0  0  0  0
   -8.6562    2.3705    0.0000 C   0  0  0  0  0  0  0  0  0  0  0  0
   -7.2296    2.8340    0.0000 C   0  0  0  0  0  0  0  0  0  0  0  0
   -6.1149    1.8303    0.0000 C   0  0  0  0  0  0  0  0  0  0  0  0
   -4.6883    2.2939    0.0000 C   0  0  0  0  0  0  0  0  0  0  0  0
   -4.3764    3.7611    0.0000 O   0  0  0  0  0  0  0  0  0  0  0  0
   -3.5736    1.2902    0.0000 N   0  0  0  0  0  0  0  0  0  0  0  0
   -2.1470    1.7537    0.0000 C   0  0  0  0  0  0  0  0  0  0  0  0
   -1.8351    3.2209    0.0000 C   0  0  0  0  0  0  0  0  0  0  0  0
   -0.4086    3.6844    0.0000 C   0  0  0  0  0  0  0  0  0  0  0  0
    0.7062    2.6807    0.0000 N   0  0  0  0  0  0  0  0  0  0  0  0
    0.3943    1.2135    0.0000 C   0  0  0  0  0  0  0  0  0  0  0  0
    1.2760    0.0000    0.0000 N   0  0  0  0  0  0  0  0  0  0  0  0
    0.3943   -1.2135    0.0000 C   0  0  0  0  0  0  0  0  0  0  0  0
   -1.0323   -0.7500    0.0000 C   0  0  0  0  0  0  0  0  0  0  0  0
   -1.0323    0.7500    0.0000 C   0  0  0  0  0  0  0  0  0  0  0  0
   -6.4268    0.3631    0.0000 C   0  0  0  0  0  0  0  0  0  0  0  0
   -7.8533   -0.1004    0.0000 C   0  0  0  0  0  0  0  0  0  0  0  0
  1  2  1  0
  2  3  1  0
  2  4  1  0
  4  5  2  0
  5  6  1  0
  6  7  2  0
  7  8  1  0
  8  9  2  0
  8 10  1  0
 10 11  2  3
 11 12  1  0
 12 13  2  0
 13 14  1  0
 14 15  1  0
 15 16  1  0
 16 17  1  0
 17 18  2  0
 18 19  1  0
  7 20  1  0
 20 21  2  0
 21  4  1  0
 19 11  1  0
 19 15  2  0
M  END
>  <Synonyms>  (402) 
Y-39983

>  <Research Codes>  (402) 
Y-39983

>  <Phase>  (402) 
1

>  <Applicants>  (402) 
nan

>  <USAN Stem>  (402) 
nan

>  <USAN Year>  (402) 
nan

>  <USAN Stem Definition>  (402) 
nan

>  <USAN Stem Substem>  (402) 
nan

>  <First Approval>  (402) 
nan

>  <ATC Codes>  (402) 
nan

>  <Level 4 ATC Codes>  (402) 
nan

>  <Level 3 ATC Codes>  (402) 
nan

>  <Level 2 ATC Codes>  (402) 
nan

>  <Level 1 ATC Codes>  (402) 
nan

>  <Indication Class>  (402) 
nan

>  <Patent>  (402) 
nan

>  <Drug Type>  (402) 
1:Synthetic Small Molecule

>  <Passes Rule of Five>  (402) 
True

>  <First In Class>  (402) 
False

>  <Chirality>  (402) 
Single Stereoisomer

>  <Prodrug>  (402) 
False

>  <Oral>  (402) 
False

>  <Parenteral>  (402) 
False

>  <Topical>  (402) 
False

>  <Black Box>  (402) 
False

>  <Availability Type>  (402) 
Unknown

>  <Withdrawn Year>  (402) 
nan

>  <Withdrawn Reason>  (402) 
nan

>  <Withdrawn Country>  (402) 
nan

>  <Withdrawn Class>  (402) 
nan

>  <SMILES>  (402) 
C[C@@H](N)c1ccc(C(=O)Nc2ccnc3[nH]ccc23)cc1

>  <InChi Key>  (402) 
JTVBXQAYBIJXRP-UHFFFAOYSA-N

$$$$
CHEMBL1870796
     RDKit          2D

 13 12  0  0  0  0  0  0  0  0999 V2000
    0.0000    0.0000    0.0000 C   0  0  0  0  0  0  0  0  0  0  0  0
    1.2990    0.7500    0.0000 C   0  0  0  0  0  0  0  0  0  0  0  0
    2.5981    1.5000    0.0000 C   0  0  0  0  0  0  0  0  0  0  0  0
    2.0490   -0.5490    0.0000 C   0  0  0  0  0  0  0  0  0  0  0  0
    0.5490    2.0490    0.0000 C   0  0  0  0  0  0  0  0  0  0  0  0
   -0.9510    2.0490    0.0000 O   0  0  0  0  0  0  0  0  0  0  0  0
    1.2990    3.3481    0.0000 N   0  0  0  0  0  0  0  0  0  0  0  0
    0.5490    4.6471    0.0000 C   0  0  0  0  0  0  0  0  0  0  0  0
    1.2990    5.9462    0.0000 C   0  0  0  0  0  0  0  0  0  0  0  0
    0.5490    7.2452    0.0000 C   0  0  0  0  0  0  0  0  0  0  0  0
    1.2990    8.5442    0.0000 C   0  0  0  0  0  0  0  0  0  0  0  0
    0.5490    9.8433    0.0000 O   0  0  0  0  0  0  0  0  0  0  0  0
    2.7990    8.5442    0.0000 O   0  0  0  0  0  0  0  0  0  0  0  0
  1  2  1  0
  2  3  1  0
  2  4  1  0
  2  5  1  0
  5  6  2  0
  5  7  1  0
  7  8  1  0
  8  9  1  0
  9 10  1  0
 10 11  1  0
 11 12  2  0
 11 13  1  0
M  END
>  <Synonyms>  (403) 
CXB-722|CXB722|PIVAGABINE

>  <Research Codes>  (403) 
CXB-722|CXB722

>  <Phase>  (403) 
1

>  <Applicants>  (403) 
nan

>  <USAN Stem>  (403) 
'-gab-'

>  <USAN Year>  (403) 
nan

>  <USAN Stem Definition>  (403) 
gabamimetics

>  <USAN Stem Substem>  (403) 
'-gab-(-gab-)'

>  <First Approval>  (403) 
nan

>  <ATC Codes>  (403) 
N06AX15

>  <Level 4 ATC Codes>  (403) 
N06AX - Other antidepressants

>  <Level 3 ATC Codes>  (403) 
N06A - ANTIDEPRESSANTS

>  <Level 2 ATC Codes>  (403) 
N06 - PSYCHOANALEPTICS

>  <Level 1 ATC Codes>  (403) 
N - NERVOUS SYSTEM

>  <Indication Class>  (403) 
nan

>  <Patent>  (403) 
nan

>  <Drug Type>  (403) 
1:Synthetic Small Molecule

>  <Passes Rule of Five>  (403) 
True

>  <First In Class>  (403) 
False

>  <Chirality>  (403) 
Achiral Molecule

>  <Prodrug>  (403) 
False

>  <Oral>  (403) 
False

>  <Parenteral>  (403) 
False

>  <Topical>  (403) 
False

>  <Black Box>  (403) 
False

>  <Availability Type>  (403) 
Unknown

>  <Withdrawn Year>  (403) 
nan

>  <Withdrawn Reason>  (403) 
nan

>  <Withdrawn Country>  (403) 
nan

>  <Withdrawn Class>  (403) 
nan

>  <SMILES>  (403) 
CC(C)(C)C(=O)NCCCC(=O)O

>  <InChi Key>  (403) 
SRPNQDXRVRCTNK-UHFFFAOYSA-N

$$$$
CHEMBL482767
     RDKit          2D

 28 31  0  0  0  0  0  0  0  0999 V2000
  -10.6670    6.5618    0.0000 O   0  0  0  0  0  0  0  0  0  0  0  0
  -11.5487    5.3483    0.0000 C   0  0  0  0  0  0  0  0  0  0  0  0
  -13.0405    5.5051    0.0000 N   0  0  0  0  0  0  0  0  0  0  0  0
  -13.6506    6.8754    0.0000 C   0  0  0  0  0  0  0  0  0  0  0  0
  -12.7689    8.0890    0.0000 C   0  0  0  0  0  0  0  0  0  0  0  0
  -13.3790    9.4593    0.0000 C   0  0  0  0  0  0  0  0  0  0  0  0
  -14.8708    9.6161    0.0000 C   0  0  0  0  0  0  0  0  0  0  0  0
  -15.7525    8.4025    0.0000 C   0  0  0  0  0  0  0  0  0  0  0  0
  -17.2443    8.5593    0.0000 Cl  0  0  0  0  0  0  0  0  0  0  0  0
  -15.1424    7.0322    0.0000 C   0  0  0  0  0  0  0  0  0  0  0  0
  -10.9386    3.9780    0.0000 N   0  0  0  0  0  0  0  0  0  0  0  0
   -9.4468    3.8212    0.0000 C   0  0  0  0  0  0  0  0  0  0  0  0
   -8.4431    4.9359    0.0000 N   0  0  0  0  0  0  0  0  0  0  0  0
   -7.0728    4.3258    0.0000 C   0  0  0  0  0  0  0  0  0  0  0  0
   -7.2296    2.8340    0.0000 C   0  0  0  0  0  0  0  0  0  0  0  0
   -6.1149    1.8303    0.0000 C   0  0  0  0  0  0  0  0  0  0  0  0
   -4.6883    2.2939    0.0000 C   0  0  0  0  0  0  0  0  0  0  0  0
   -3.5736    1.2902    0.0000 N   0  0  0  0  0  0  0  0  0  0  0  0
   -2.1470    1.7537    0.0000 C   0  0  0  0  0  0  0  0  0  0  0  0
   -1.8351    3.2209    0.0000 N   0  0  0  0  0  0  0  0  0  0  0  0
   -0.4086    3.6844    0.0000 C   0  0  0  0  0  0  0  0  0  0  0  0
    0.7062    2.6807    0.0000 N   0  0  0  0  0  0  0  0  0  0  0  0
    0.3943    1.2135    0.0000 C   0  0  0  0  0  0  0  0  0  0  0  0
    1.2760    0.0000    0.0000 C   0  0  0  0  0  0  0  0  0  0  0  0
    0.3943   -1.2135    0.0000 C   0  0  0  0  0  0  0  0  0  0  0  0
   -1.0323   -0.7500    0.0000 S   0  0  0  0  0  0  0  0  0  0  0  0
   -1.0323    0.7500    0.0000 C   0  0  0  0  0  0  0  0  0  0  0  0
   -8.6968    2.5222    0.0000 S   0  0  0  0  0  0  0  0  0  0  0  0
  1  2  2  0
  2  3  1  0
  3  4  1  0
  4  5  2  0
  5  6  1  0
  6  7  2  0
  7  8  1  0
  8  9  1  0
  8 10  2  0
  2 11  1  0
 11 12  2  3
 12 13  1  0
 13 14  1  0
 14 15  2  0
 15 16  1  0
 16 17  1  0
 17 18  1  0
 18 19  2  3
 19 20  1  0
 20 21  1  0
 21 22  2  0
 22 23  1  0
 23 24  1  0
 24 25  2  0
 25 26  1  0
 26 27  1  0
 15 28  1  0
 10  4  1  0
 28 12  1  0
 27 19  1  0
 27 23  2  0
M  END
>  <Synonyms>  (404) 
SNS 314|SNS-314

>  <Research Codes>  (404) 
SNS-314

>  <Phase>  (404) 
1

>  <Applicants>  (404) 
nan

>  <USAN Stem>  (404) 
nan

>  <USAN Year>  (404) 
nan

>  <USAN Stem Definition>  (404) 
nan

>  <USAN Stem Substem>  (404) 
nan

>  <First Approval>  (404) 
nan

>  <ATC Codes>  (404) 
nan

>  <Level 4 ATC Codes>  (404) 
nan

>  <Level 3 ATC Codes>  (404) 
nan

>  <Level 2 ATC Codes>  (404) 
nan

>  <Level 1 ATC Codes>  (404) 
nan

>  <Indication Class>  (404) 
nan

>  <Patent>  (404) 
nan

>  <Drug Type>  (404) 
1:Synthetic Small Molecule

>  <Passes Rule of Five>  (404) 
True

>  <First In Class>  (404) 
False

>  <Chirality>  (404) 
Achiral Molecule

>  <Prodrug>  (404) 
False

>  <Oral>  (404) 
False

>  <Parenteral>  (404) 
False

>  <Topical>  (404) 
False

>  <Black Box>  (404) 
False

>  <Availability Type>  (404) 
Unknown

>  <Withdrawn Year>  (404) 
nan

>  <Withdrawn Reason>  (404) 
nan

>  <Withdrawn Country>  (404) 
nan

>  <Withdrawn Class>  (404) 
nan

>  <SMILES>  (404) 
O=C(Nc1cccc(Cl)c1)Nc1ncc(CCN=c2[nH]cnc3ccsc23)s1

>  <InChi Key>  (404) 
FAYAUAZLLLJJGH-UHFFFAOYSA-N

$$$$
CHEMBL2133806
     RDKit          2D

 28 32  0  0  0  0  0  0  0  0999 V2000
    5.3788   -9.7963    0.0000 C   0  0  0  0  0  0  0  0  0  0  0  0
    3.9522  -10.2598    0.0000 N   0  0  0  0  0  0  0  0  0  0  0  0
    2.7387   -9.3781    0.0000 C   0  0  0  0  0  0  0  0  0  0  0  0
    1.5251  -10.2598    0.0000 C   0  0  0  0  0  0  0  0  0  0  0  0
    0.0986   -9.7963    0.0000 C   0  0  0  0  0  0  0  0  0  0  0  0
   -1.0162  -10.8000    0.0000 C   0  0  0  0  0  0  0  0  0  0  0  0
   -2.4427  -10.3364    0.0000 C   0  0  0  0  0  0  0  0  0  0  0  0
   -2.7546   -8.8692    0.0000 C   0  0  0  0  0  0  0  0  0  0  0  0
   -4.0537   -8.1192    0.0000 N   0  0  0  0  0  0  0  0  0  0  0  0
   -3.7418   -6.6520    0.0000 N   0  0  0  0  0  0  0  0  0  0  0  0
   -2.2500   -6.4952    0.0000 C   0  0  0  0  0  0  0  0  0  0  0  0
   -1.5000   -5.1962    0.0000 C   0  0  0  0  0  0  0  0  0  0  0  0
   -0.2010   -5.9462    0.0000 F   0  0  0  0  0  0  0  0  0  0  0  0
   -2.7990   -4.4462    0.0000 F   0  0  0  0  0  0  0  0  0  0  0  0
   -0.7500   -3.8971    0.0000 C   0  0  0  0  0  0  0  0  0  0  0  0
    0.7500   -3.8971    0.0000 C   0  0  0  0  0  0  0  0  0  0  0  0
    1.5000   -2.5981    0.0000 C   0  0  0  0  0  0  0  0  0  0  0  0
    0.7500   -1.2990    0.0000 C   0  0  0  0  0  0  0  0  0  0  0  0
    1.5000    0.0000    0.0000 N   0  0  0  0  0  0  0  0  0  0  0  0
    0.7500    1.2990    0.0000 C   0  0  0  0  0  0  0  0  0  0  0  0
   -0.7500    1.2990    0.0000 C   0  0  0  0  0  0  0  0  0  0  0  0
   -1.5000    0.0000    0.0000 C   0  0  0  0  0  0  0  0  0  0  0  0
   -0.7500   -1.2990    0.0000 C   0  0  0  0  0  0  0  0  0  0  0  0
   -1.5000   -2.5981    0.0000 C   0  0  0  0  0  0  0  0  0  0  0  0
   -1.6399   -7.8655    0.0000 N   0  0  0  0  0  0  0  0  0  0  0  0
   -0.2133   -8.3290    0.0000 N   0  0  0  0  0  0  0  0  0  0  0  0
    1.9887  -11.6864    0.0000 C   0  0  0  0  0  0  0  0  0  0  0  0
    3.4887  -11.6864    0.0000 N   0  0  0  0  0  0  0  0  0  0  0  0
  1  2  1  0
  2  3  1  0
  3  4  2  0
  4  5  1  0
  5  6  1  0
  6  7  2  0
  7  8  1  0
  8  9  2  0
  9 10  1  0
 10 11  2  0
 11 12  1  0
 12 13  1  0
 12 14  1  0
 12 15  1  0
 15 16  2  0
 16 17  1  0
 17 18  2  0
 18 19  1  0
 19 20  2  0
 20 21  1  0
 21 22  2  0
 22 23  1  0
 23 24  2  0
 11 25  1  0
 25 26  1  0
  4 27  1  0
 27 28  2  0
 28  2  1  0
 26  5  2  0
 25  8  1  0
 24 15  1  0
 23 18  1  0
M  END
>  <Synonyms>  (405) 
JNJ-38877605

>  <Research Codes>  (405) 
JNJ-38877605

>  <Phase>  (405) 
1

>  <Applicants>  (405) 
nan

>  <USAN Stem>  (405) 
nan

>  <USAN Year>  (405) 
nan

>  <USAN Stem Definition>  (405) 
nan

>  <USAN Stem Substem>  (405) 
nan

>  <First Approval>  (405) 
nan

>  <ATC Codes>  (405) 
nan

>  <Level 4 ATC Codes>  (405) 
nan

>  <Level 3 ATC Codes>  (405) 
nan

>  <Level 2 ATC Codes>  (405) 
nan

>  <Level 1 ATC Codes>  (405) 
nan

>  <Indication Class>  (405) 
nan

>  <Patent>  (405) 
nan

>  <Drug Type>  (405) 
1:Synthetic Small Molecule

>  <Passes Rule of Five>  (405) 
True

>  <First In Class>  (405) 
False

>  <Chirality>  (405) 
Achiral Molecule

>  <Prodrug>  (405) 
False

>  <Oral>  (405) 
False

>  <Parenteral>  (405) 
False

>  <Topical>  (405) 
False

>  <Black Box>  (405) 
False

>  <Availability Type>  (405) 
Unknown

>  <Withdrawn Year>  (405) 
nan

>  <Withdrawn Reason>  (405) 
nan

>  <Withdrawn Country>  (405) 
nan

>  <Withdrawn Class>  (405) 
nan

>  <SMILES>  (405) 
Cn1cc(-c2ccc3nnc(C(F)(F)c4ccc5ncccc5c4)n3n2)cn1

>  <InChi Key>  (405) 
JRWCBEOAFGHNNU-UHFFFAOYSA-N

$$$$
CHEMBL90983
     RDKit          2D

 26 27  0  0  0  0  0  0  0  0999 V2000
    3.7500   -1.2990    0.0000 C   0  0  0  0  0  0  0  0  0  0  0  0
    3.0000    0.0000    0.0000 O   0  0  0  0  0  0  0  0  0  0  0  0
    1.5000    0.0000    0.0000 C   0  0  0  0  0  0  0  0  0  0  0  0
    0.7500   -1.2990    0.0000 C   0  0  0  0  0  0  0  0  0  0  0  0
   -0.7500   -1.2990    0.0000 C   0  0  0  0  0  0  0  0  0  0  0  0
   -1.5000    0.0000    0.0000 C   0  0  0  0  0  0  0  0  0  0  0  0
   -3.0000    0.0000    0.0000 C   0  0  0  0  0  0  0  0  0  0  0  0
   -3.7500    1.2990    0.0000 C   0  0  0  0  0  0  0  0  0  0  0  0
   -5.2500    1.2990    0.0000 C   0  0  0  0  0  0  0  0  0  0  0  0
   -3.0000    2.5981    0.0000 C   0  0  0  0  0  0  0  0  0  0  0  0
   -3.7500    3.8971    0.0000 C   0  0  0  0  0  0  0  0  0  0  0  0
   -1.5000    2.5981    0.0000 C   0  0  0  0  0  0  0  0  0  0  0  0
   -0.7500    3.8971    0.0000 C   0  0  0  0  0  0  0  0  0  0  0  0
    0.7500    3.8971    0.0000 C   0  0  0  0  0  0  0  0  0  0  0  0
    1.5000    5.1962    0.0000 C   0  0  0  0  0  0  0  0  0  0  0  0
    0.7500    6.4952    0.0000 C   0  0  0  0  0  0  0  0  0  0  0  0
    1.5000    7.7942    0.0000 O   0  0  0  0  0  0  0  0  0  0  0  0
    3.0000    7.7942    0.0000 C   0  0  0  0  0  0  0  0  0  0  0  0
   -0.7500    6.4952    0.0000 C   0  0  0  0  0  0  0  0  0  0  0  0
   -1.5000    7.7942    0.0000 O   0  0  0  0  0  0  0  0  0  0  0  0
   -3.0000    7.7942    0.0000 C   0  0  0  0  0  0  0  0  0  0  0  0
   -1.5000    5.1962    0.0000 C   0  0  0  0  0  0  0  0  0  0  0  0
   -0.7500    1.2990    0.0000 C   0  0  0  0  0  0  0  0  0  0  0  0
    0.7500    1.2990    0.0000 C   0  0  0  0  0  0  0  0  0  0  0  0
    1.5000    2.5981    0.0000 O   0  0  0  0  0  0  0  0  0  0  0  0
    3.0000    2.5981    0.0000 C   0  0  0  0  0  0  0  0  0  0  0  0
  1  2  1  0
  2  3  1  0
  3  4  2  0
  4  5  1  0
  5  6  2  0
  6  7  1  0
  7  8  1  0
  8  9  1  6
  8 10  1  0
 10 11  1  6
 10 12  1  0
 12 13  1  0
 13 14  2  0
 14 15  1  0
 15 16  2  0
 16 17  1  0
 17 18  1  0
 16 19  1  0
 19 20  1  0
 20 21  1  0
 19 22  2  0
  6 23  1  0
 23 24  2  0
 24 25  1  0
 25 26  1  0
 24  3  1  0
 22 13  1  0
M  END
>  <Synonyms>  (406) 
EM 1421|EM-1421|TERAMEPROCOL

>  <Research Codes>  (406) 
EM 1421|EM-1421

>  <Phase>  (406) 
1

>  <Applicants>  (406) 
nan

>  <USAN Stem>  (406) 
nan

>  <USAN Year>  (406) 
2005.0

>  <USAN Stem Definition>  (406) 
nan

>  <USAN Stem Substem>  (406) 
nan

>  <First Approval>  (406) 
nan

>  <ATC Codes>  (406) 
nan

>  <Level 4 ATC Codes>  (406) 
nan

>  <Level 3 ATC Codes>  (406) 
nan

>  <Level 2 ATC Codes>  (406) 
nan

>  <Level 1 ATC Codes>  (406) 
nan

>  <Indication Class>  (406) 
nan

>  <Patent>  (406) 
nan

>  <Drug Type>  (406) 
1:Synthetic Small Molecule

>  <Passes Rule of Five>  (406) 
True

>  <First In Class>  (406) 
False

>  <Chirality>  (406) 
Single Stereoisomer

>  <Prodrug>  (406) 
False

>  <Oral>  (406) 
False

>  <Parenteral>  (406) 
False

>  <Topical>  (406) 
False

>  <Black Box>  (406) 
False

>  <Availability Type>  (406) 
Unknown

>  <Withdrawn Year>  (406) 
nan

>  <Withdrawn Reason>  (406) 
nan

>  <Withdrawn Country>  (406) 
nan

>  <Withdrawn Class>  (406) 
nan

>  <SMILES>  (406) 
COc1ccc(C[C@H](C)[C@H](C)Cc2ccc(OC)c(OC)c2)cc1OC

>  <InChi Key>  (406) 
ORQFDHFZSMXRLM-IYBDPMFKSA-N

$$$$
CHEMBL4207489
     RDKit          2D

 34 37  0  0  0  0  0  0  0  0999 V2000
    9.0000   -7.7942    0.0000 N   0  0  0  0  0  0  0  0  0  0  0  0
    8.2500   -6.4952    0.0000 C   0  0  0  0  0  0  0  0  0  0  0  0
    7.5000   -5.1962    0.0000 C   0  0  0  0  0  0  0  0  0  0  0  0
    6.0000   -5.1962    0.0000 C   0  0  0  0  0  0  0  0  0  0  0  0
    5.2500   -3.8971    0.0000 C   0  0  0  0  0  0  0  0  0  0  0  0
    3.7500   -3.8971    0.0000 N   0  0  0  0  0  0  0  0  0  0  0  0
    3.0000   -2.5981    0.0000 C   0  0  0  0  0  0  0  0  0  0  0  0
    3.7500   -1.2990    0.0000 O   0  0  0  0  0  0  0  0  0  0  0  0
    1.5000   -2.5981    0.0000 C   0  0  0  0  0  0  0  0  0  0  0  0
    0.7500   -1.2990    0.0000 C   0  0  0  0  0  0  0  0  0  0  0  0
    1.5000    0.0000    0.0000 C   0  0  0  0  0  0  0  0  0  0  0  0
    0.7500    1.2990    0.0000 C   0  0  0  0  0  0  0  0  0  0  0  0
   -0.7500    1.2990    0.0000 C   0  0  0  0  0  0  0  0  0  0  0  0
   -1.5000    0.0000    0.0000 C   0  0  0  0  0  0  0  0  0  0  0  0
   -0.7500   -1.2990    0.0000 C   0  0  0  0  0  0  0  0  0  0  0  0
   -1.5000   -2.5981    0.0000 C   0  0  0  0  0  0  0  0  0  0  0  0
   -3.0000   -2.5981    0.0000 O   0  0  0  0  0  0  0  0  0  0  0  0
   -0.7500   -3.8971    0.0000 N   0  0  0  0  0  0  0  0  0  0  0  0
   -1.5000   -5.1962    0.0000 C   0  0  0  0  0  0  0  0  0  0  0  0
   -3.0000   -5.1962    0.0000 C   0  0  0  0  0  0  0  0  0  0  0  0
   -4.5000   -5.1962    0.0000 F   0  0  0  0  0  0  0  0  0  0  0  0
   -3.0000   -6.6962    0.0000 F   0  0  0  0  0  0  0  0  0  0  0  0
   -3.0000   -3.6962    0.0000 F   0  0  0  0  0  0  0  0  0  0  0  0
    0.7500   -3.8971    0.0000 C   0  0  0  0  0  0  0  0  0  0  0  0
    1.5000   -5.1962    0.0000 C   0  0  0  0  0  0  0  0  0  0  0  0
    0.7500   -6.4952    0.0000 C   0  0  0  0  0  0  0  0  0  0  0  0
    1.5000   -7.7942    0.0000 C   0  0  0  0  0  0  0  0  0  0  0  0
    3.0000   -7.7942    0.0000 C   0  0  0  0  0  0  0  0  0  0  0  0
    3.7500   -6.4952    0.0000 N   0  0  0  0  0  0  0  0  0  0  0  0
    3.0000   -5.1962    0.0000 C   0  0  0  0  0  0  0  0  0  0  0  0
    6.0000   -2.5981    0.0000 C   0  0  0  0  0  0  0  0  0  0  0  0
    7.5000   -2.5981    0.0000 C   0  0  0  0  0  0  0  0  0  0  0  0
    8.2500   -3.8971    0.0000 C   0  0  0  0  0  0  0  0  0  0  0  0
    9.7500   -3.8971    0.0000 F   0  0  0  0  0  0  0  0  0  0  0  0
  1  2  3  0
  2  3  1  0
  3  4  2  0
  4  5  1  0
  5  6  1  0
  6  7  1  0
  7  8  2  0
  7  9  1  0
  9 10  1  0
 10 11  2  0
 11 12  1  0
 12 13  2  0
 13 14  1  0
 14 15  2  0
 15 16  1  0
 16 17  2  0
 16 18  1  0
 18 19  1  0
 19 20  1  0
 20 21  1  0
 20 22  1  0
 20 23  1  0
 18 24  1  0
 24 25  1  1
 25 26  2  0
 26 27  1  0
 27 28  2  0
 28 29  1  0
 29 30  2  0
  5 31  2  0
 31 32  1  0
 32 33  2  0
 33 34  1  0
 33  3  1  0
 24  9  1  0
 30 25  1  0
 15 10  1  0
M  END
>  <Synonyms>  (407) 
SJ-733|SJ733

>  <Research Codes>  (407) 
SJ733

>  <Phase>  (407) 
1

>  <Applicants>  (407) 
nan

>  <USAN Stem>  (407) 
nan

>  <USAN Year>  (407) 
nan

>  <USAN Stem Definition>  (407) 
nan

>  <USAN Stem Substem>  (407) 
nan

>  <First Approval>  (407) 
nan

>  <ATC Codes>  (407) 
nan

>  <Level 4 ATC Codes>  (407) 
nan

>  <Level 3 ATC Codes>  (407) 
nan

>  <Level 2 ATC Codes>  (407) 
nan

>  <Level 1 ATC Codes>  (407) 
nan

>  <Indication Class>  (407) 
nan

>  <Patent>  (407) 
nan

>  <Drug Type>  (407) 
1:Synthetic Small Molecule

>  <Passes Rule of Five>  (407) 
True

>  <First In Class>  (407) 
False

>  <Chirality>  (407) 
Single Stereoisomer

>  <Prodrug>  (407) 
False

>  <Oral>  (407) 
False

>  <Parenteral>  (407) 
False

>  <Topical>  (407) 
False

>  <Black Box>  (407) 
False

>  <Availability Type>  (407) 
Unknown

>  <Withdrawn Year>  (407) 
nan

>  <Withdrawn Reason>  (407) 
nan

>  <Withdrawn Country>  (407) 
nan

>  <Withdrawn Class>  (407) 
nan

>  <SMILES>  (407) 
N#Cc1cc(NC(=O)[C@H]2c3ccccc3C(=O)N(CC(F)(F)F)[C@@H]2c2cccnc2)ccc1F

>  <InChi Key>  (407) 
VKCPFWKTFZAOTO-BPGUCPLFSA-N

$$$$
CHEMBL3693786
     RDKit          2D

 33 35  0  0  0  0  0  0  0  0999 V2000
   12.7500   -3.8971    0.0000 O   0  0  0  0  0  0  0  0  0  0  0  0
   12.0000   -5.1962    0.0000 C   0  0  0  0  0  0  0  0  0  0  0  0
   10.5000   -5.1962    0.0000 C   0  0  0  0  0  0  0  0  0  0  0  0
    9.7500   -3.8971    0.0000 C   0  0  0  0  0  0  0  0  0  0  0  0
    8.2500   -3.8971    0.0000 C   0  0  0  0  0  0  0  0  0  0  0  0
    7.5000   -2.5981    0.0000 C   0  0  0  0  0  0  0  0  0  0  0  0
    6.0000   -2.5981    0.0000 C   0  0  0  0  0  0  0  0  0  0  0  0
    5.2500   -1.2990    0.0000 C   0  0  0  0  0  0  0  0  0  0  0  0
    3.7500   -1.2990    0.0000 N   0  0  0  0  0  0  0  0  0  0  0  0
    3.0000    0.0000    0.0000 C   0  0  0  0  0  0  0  0  0  0  0  0
    3.7500    1.2990    0.0000 O   0  0  0  0  0  0  0  0  0  0  0  0
    1.5000    0.0000    0.0000 C   0  0  0  0  0  0  0  0  0  0  0  0
    0.7500   -1.2990    0.0000 C   0  0  0  0  0  0  0  0  0  0  0  0
   -0.7500   -1.2990    0.0000 N   0  0  0  0  0  0  0  0  0  0  0  0
   -1.5000    0.0000    0.0000 C   0  0  0  0  0  0  0  0  0  0  0  0
   -3.0000    0.0000    0.0000 N   0  0  0  0  0  0  0  0  0  0  0  0
   -3.7500    1.2990    0.0000 C   0  0  0  0  0  0  0  0  0  0  0  0
   -3.0000    2.5981    0.0000 C   0  0  0  0  0  0  0  0  0  0  0  0
   -3.7500    3.8971    0.0000 C   0  0  0  0  0  0  0  0  0  0  0  0
   -5.2500    3.8971    0.0000 C   0  0  0  0  0  0  0  0  0  0  0  0
   -6.0000    2.5981    0.0000 C   0  0  0  0  0  0  0  0  0  0  0  0
   -5.2500    1.2990    0.0000 C   0  0  0  0  0  0  0  0  0  0  0  0
   -3.7500   -1.2990    0.0000 C   0  0  0  0  0  0  0  0  0  0  0  0
   -5.2500   -1.2990    0.0000 C   0  0  0  0  0  0  0  0  0  0  0  0
   -6.0000   -2.5981    0.0000 C   0  0  0  0  0  0  0  0  0  0  0  0
   -5.2500   -3.8971    0.0000 C   0  0  0  0  0  0  0  0  0  0  0  0
   -3.7500   -3.8971    0.0000 C   0  0  0  0  0  0  0  0  0  0  0  0
   -3.0000   -2.5981    0.0000 C   0  0  0  0  0  0  0  0  0  0  0  0
   -1.5000   -2.5981    0.0000 Cl  0  0  0  0  0  0  0  0  0  0  0  0
   -0.7500    1.2990    0.0000 N   0  0  0  0  0  0  0  0  0  0  0  0
    0.7500    1.2990    0.0000 C   0  0  0  0  0  0  0  0  0  0  0  0
   12.7500   -6.4952    0.0000 N   0  0  0  0  0  0  0  0  0  0  0  0
   14.2500   -6.4952    0.0000 O   0  0  0  0  0  0  0  0  0  0  0  0
  1  2  1  0
  2  3  1  0
  3  4  1  0
  4  5  1  0
  5  6  1  0
  6  7  1  0
  7  8  1  0
  8  9  1  0
  9 10  1  0
 10 11  2  0
 10 12  1  0
 12 13  2  0
 13 14  1  0
 14 15  2  0
 15 16  1  0
 16 17  1  0
 17 18  2  0
 18 19  1  0
 19 20  2  0
 20 21  1  0
 21 22  2  0
 16 23  1  0
 23 24  2  0
 24 25  1  0
 25 26  2  0
 26 27  1  0
 27 28  2  0
 28 29  1  0
 15 30  1  0
 30 31  2  0
  2 32  2  3
 32 33  1  0
 31 12  1  0
 22 17  1  0
 28 23  1  0
M  END
>  <Synonyms>  (408) 
ACY-241|CITARINOSTAT|HDAC-IN-2

>  <Research Codes>  (408) 
ACY-241|HDAC-IN-2

>  <Phase>  (408) 
1

>  <Applicants>  (408) 
nan

>  <USAN Stem>  (408) 
'-stat'

>  <USAN Year>  (408) 
2016.0

>  <USAN Stem Definition>  (408) 
enzyme inhibitors: inhibitors of histone deacetylase

>  <USAN Stem Substem>  (408) 
'-stat(-stat (-inostat))'

>  <First Approval>  (408) 
nan

>  <ATC Codes>  (408) 
nan

>  <Level 4 ATC Codes>  (408) 
nan

>  <Level 3 ATC Codes>  (408) 
nan

>  <Level 2 ATC Codes>  (408) 
nan

>  <Level 1 ATC Codes>  (408) 
nan

>  <Indication Class>  (408) 
nan

>  <Patent>  (408) 
nan

>  <Drug Type>  (408) 
1:Synthetic Small Molecule

>  <Passes Rule of Five>  (408) 
True

>  <First In Class>  (408) 
False

>  <Chirality>  (408) 
Achiral Molecule

>  <Prodrug>  (408) 
False

>  <Oral>  (408) 
False

>  <Parenteral>  (408) 
False

>  <Topical>  (408) 
False

>  <Black Box>  (408) 
False

>  <Availability Type>  (408) 
Unknown

>  <Withdrawn Year>  (408) 
nan

>  <Withdrawn Reason>  (408) 
nan

>  <Withdrawn Country>  (408) 
nan

>  <Withdrawn Class>  (408) 
nan

>  <SMILES>  (408) 
O=C(CCCCCCNC(=O)c1cnc(N(c2ccccc2)c2ccccc2Cl)nc1)NO

>  <InChi Key>  (408) 
VLIUIBXPEDFJRF-UHFFFAOYSA-N

$$$$
CHEMBL3249110
     RDKit          2D

 38 42  0  0  0  0  0  0  0  0999 V2000
    3.7500   -1.2990    0.0000 C   0  0  0  0  0  0  0  0  0  0  0  0
    3.0000    0.0000    0.0000 O   0  0  0  0  0  0  0  0  0  0  0  0
    1.5000    0.0000    0.0000 C   0  0  0  0  0  0  0  0  0  0  0  0
    0.7500   -1.2990    0.0000 C   0  0  0  0  0  0  0  0  0  0  0  0
   -0.7500   -1.2990    0.0000 C   0  0  0  0  0  0  0  0  0  0  0  0
   -1.5000    0.0000    0.0000 C   0  0  0  0  0  0  0  0  0  0  0  0
   -0.7500    1.2990    0.0000 C   0  0  0  0  0  0  0  0  0  0  0  0
    0.7500    1.2990    0.0000 C   0  0  0  0  0  0  0  0  0  0  0  0
    1.5000    2.5981    0.0000 C   0  0  0  0  0  0  0  0  0  0  0  0
    3.0000    2.5981    0.0000 O   0  0  0  0  0  0  0  0  0  0  0  0
    0.7500    3.8971    0.0000 C   0  0  0  0  0  0  0  0  0  0  0  0
    1.5000    5.1962    0.0000 C   0  0  0  0  0  0  0  0  0  0  0  0
    3.0000    5.1962    0.0000 O   0  0  0  0  0  0  0  0  0  0  0  0
    0.7500    6.4952    0.0000 C   0  0  0  0  0  0  0  0  0  0  0  0
   -0.7500    6.4952    0.0000 C   0  0  0  0  0  0  0  0  0  0  0  0
   -1.5000    5.1962    0.0000 C   0  0  0  0  0  0  0  0  0  0  0  0
   -3.0000    5.1962    0.0000 O   0  0  0  0  0  0  0  0  0  0  0  0
   -0.7500    3.8971    0.0000 C   0  0  0  0  0  0  0  0  0  0  0  0
   -1.5000    2.5981    0.0000 C   0  0  0  0  0  0  0  0  0  0  0  0
   -3.0000    2.5981    0.0000 O   0  0  0  0  0  0  0  0  0  0  0  0
   -1.5000    7.7942    0.0000 C   0  0  0  0  0  0  0  0  0  0  0  0
   -0.7500    9.0933    0.0000 C   0  0  0  0  0  0  0  0  0  0  0  0
   -2.1595    9.6063    0.0000 O   0  0  0  0  0  0  0  0  0  0  0  0
   -0.4895   10.5705    0.0000 C   0  0  0  0  0  0  0  0  0  0  0  0
   -1.6386   11.5347    0.0000 C   0  0  0  0  0  0  0  0  0  0  0  0
   -1.3781   13.0119    0.0000 O   0  0  0  0  0  0  0  0  0  0  0  0
    0.7500    9.0933    0.0000 C   0  0  0  0  0  0  0  0  0  0  0  0
    1.5000    7.7942    0.0000 C   0  0  0  0  0  0  0  0  0  0  0  0
    3.0000    7.7942    0.0000 O   0  0  0  0  0  0  0  0  0  0  0  0
    3.7500    9.0933    0.0000 C   0  0  0  0  0  0  0  0  0  0  0  0
    5.2500    9.0933    0.0000 C   0  0  0  0  0  0  0  0  0  0  0  0
    6.0000   10.3923    0.0000 C   0  0  0  0  0  0  0  0  0  0  0  0
    7.5000   10.3923    0.0000 N   0  0  0  0  0  0  0  0  0  0  0  0
    5.2500   11.6913    0.0000 C   0  0  0  0  0  0  0  0  0  0  0  0
    6.0000   12.9904    0.0000 O   0  0  0  0  0  0  0  0  0  0  0  0
    3.7500   11.6913    0.0000 C   0  0  0  0  0  0  0  0  0  0  0  0
    3.0000   12.9904    0.0000 C   0  0  0  0  0  0  0  0  0  0  0  0
    3.0000   10.3923    0.0000 O   0  0  0  0  0  0  0  0  0  0  0  0
  1  2  1  0
  2  3  1  0
  3  4  2  0
  4  5  1  0
  5  6  2  0
  6  7  1  0
  7  8  1  0
  8  9  2  0
  9 10  1  0
  9 11  1  0
 11 12  2  0
 12 13  1  0
 12 14  1  0
 14 15  1  0
 15 16  1  0
 16 17  1  0
 16 18  2  0
 18 19  1  0
 19 20  1  0
 15 21  2  0
 21 22  1  0
 22 23  1  6
 22 24  1  0
 24 25  1  0
 25 26  1  0
 22 27  1  0
 27 28  1  0
 28 29  1  0
 30 29  1  6
 30 31  1  0
 31 32  1  0
 32 33  1  1
 32 34  1  0
 34 35  1  1
 34 36  1  0
 36 37  1  1
 36 38  1  0
  8  3  1  0
 18 11  1  0
 38 30  1  0
 19  7  2  0
 28 14  2  0
M  END
>  <Synonyms>  (409) 
13-DEOXYDOXORUBICIN|GPX-100

>  <Research Codes>  (409) 
GPX-100

>  <Phase>  (409) 
1

>  <Applicants>  (409) 
nan

>  <USAN Stem>  (409) 
'-rubicin'

>  <USAN Year>  (409) 
nan

>  <USAN Stem Definition>  (409) 
antineoplastic antibiotics (daunorubicin type)

>  <USAN Stem Substem>  (409) 
'-rubicin(-rubicin)'

>  <First Approval>  (409) 
nan

>  <ATC Codes>  (409) 
nan

>  <Level 4 ATC Codes>  (409) 
nan

>  <Level 3 ATC Codes>  (409) 
nan

>  <Level 2 ATC Codes>  (409) 
nan

>  <Level 1 ATC Codes>  (409) 
nan

>  <Indication Class>  (409) 
nan

>  <Patent>  (409) 
nan

>  <Drug Type>  (409) 
7:Natural Product-derived

>  <Passes Rule of Five>  (409) 
False

>  <First In Class>  (409) 
False

>  <Chirality>  (409) 
Single Stereoisomer

>  <Prodrug>  (409) 
False

>  <Oral>  (409) 
False

>  <Parenteral>  (409) 
False

>  <Topical>  (409) 
False

>  <Black Box>  (409) 
False

>  <Availability Type>  (409) 
Unknown

>  <Withdrawn Year>  (409) 
nan

>  <Withdrawn Reason>  (409) 
nan

>  <Withdrawn Country>  (409) 
nan

>  <Withdrawn Class>  (409) 
nan

>  <SMILES>  (409) 
COc1cccc2c1C(=O)c1c(O)c3c(c(O)c1C2=O)C[C@@](O)(CCO)C[C@@H]3O[C@H]1C[C@H](N)[C@H](O)[C@H](C)O1

>  <InChi Key>  (409) 
LPWZCXGICHQZBP-ZBTONRJASA-N

$$$$
CHEMBL1614707
     RDKit          2D

 34 37  0  0  0  0  0  0  0  0999 V2000
    4.5000    0.0000    0.0000 F   0  0  0  0  0  0  0  0  0  0  0  0
    3.0000    0.0000    0.0000 C   0  0  0  0  0  0  0  0  0  0  0  0
    3.0000   -1.5000    0.0000 F   0  0  0  0  0  0  0  0  0  0  0  0
    3.0000    1.5000    0.0000 F   0  0  0  0  0  0  0  0  0  0  0  0
    1.5000    0.0000    0.0000 C   0  0  0  0  0  0  0  0  0  0  0  0
    0.7500   -1.2990    0.0000 C   0  0  0  0  0  0  0  0  0  0  0  0
   -0.7500   -1.2990    0.0000 C   0  0  0  0  0  0  0  0  0  0  0  0
   -1.5000    0.0000    0.0000 C   0  0  0  0  0  0  0  0  0  0  0  0
   -3.0000    0.0000    0.0000 C   0  0  0  0  0  0  0  0  0  0  0  0
   -3.7500    1.2990    0.0000 C   0  0  0  0  0  0  0  0  0  0  0  0
   -5.2500    1.2990    0.0000 C   0  0  0  0  0  0  0  0  0  0  0  0
   -6.1317    0.0855    0.0000 N   0  0  0  0  0  0  0  0  0  0  0  0
   -7.5583    0.5490    0.0000 C   0  0  0  0  0  0  0  0  0  0  0  0
   -8.7718   -0.3326    0.0000 C   0  0  0  0  0  0  0  0  0  0  0  0
  -10.1421    0.2775    0.0000 O   0  0  0  0  0  0  0  0  0  0  0  0
  -11.3556   -0.6042    0.0000 C   0  0  0  0  0  0  0  0  0  0  0  0
  -12.7260    0.0059    0.0000 C   0  0  0  0  0  0  0  0  0  0  0  0
  -13.9395   -0.8758    0.0000 C   0  0  0  0  0  0  0  0  0  0  0  0
  -13.7827   -2.3676    0.0000 C   0  0  0  0  0  0  0  0  0  0  0  0
  -14.9962   -3.2492    0.0000 C   0  0  0  0  0  0  0  0  0  0  0  0
  -16.3665   -2.6391    0.0000 C   0  0  0  0  0  0  0  0  0  0  0  0
  -17.5801   -3.5208    0.0000 C   0  0  0  0  0  0  0  0  0  0  0  0
  -18.9504   -2.9107    0.0000 C   0  0  0  0  0  0  0  0  0  0  0  0
  -20.1639   -3.7924    0.0000 N   0  0  0  0  0  0  0  0  0  0  0  0
  -20.1639   -5.2924    0.0000 C   0  0  0  0  0  0  0  0  0  0  0  0
  -21.5905   -5.7559    0.0000 C   0  0  0  0  0  0  0  0  0  0  0  0
  -22.4722   -4.5424    0.0000 N   0  0  0  0  0  0  0  0  0  0  0  0
  -21.5905   -3.3289    0.0000 N   0  0  0  0  0  0  0  0  0  0  0  0
  -12.4124   -2.9777    0.0000 C   0  0  0  0  0  0  0  0  0  0  0  0
  -11.1988   -2.0960    0.0000 C   0  0  0  0  0  0  0  0  0  0  0  0
   -7.5583    2.0490    0.0000 C   0  0  0  0  0  0  0  0  0  0  0  0
   -6.1317    2.5126    0.0000 O   0  0  0  0  0  0  0  0  0  0  0  0
   -0.7500    1.2990    0.0000 C   0  0  0  0  0  0  0  0  0  0  0  0
    0.7500    1.2990    0.0000 C   0  0  0  0  0  0  0  0  0  0  0  0
  1  2  1  0
  2  3  1  0
  2  4  1  0
  2  5  1  0
  5  6  2  0
  6  7  1  0
  7  8  2  0
  8  9  1  0
  9 10  2  0
 10 11  1  0
 11 12  2  0
 12 13  1  0
 13 14  1  0
 14 15  1  0
 15 16  1  0
 16 17  2  0
 17 18  1  0
 18 19  2  0
 19 20  1  0
 20 21  1  0
 21 22  1  0
 22 23  1  0
 23 24  1  0
 24 25  1  0
 25 26  2  0
 26 27  1  0
 27 28  2  0
 19 29  1  0
 29 30  2  0
 13 31  2  0
 31 32  1  0
  8 33  1  0
 33 34  2  0
 34  5  1  0
 32 11  1  0
 30 16  1  0
 28 24  1  0
M  END
>  <Synonyms>  (410) 
MUBRITINIB|TAK-165

>  <Research Codes>  (410) 
TAK-165

>  <Phase>  (410) 
1

>  <Applicants>  (410) 
nan

>  <USAN Stem>  (410) 
'-tinib'

>  <USAN Year>  (410) 
2003.0

>  <USAN Stem Definition>  (410) 
tyrosine kinase inhibitors

>  <USAN Stem Substem>  (410) 
'-tinib(-tinib)'

>  <First Approval>  (410) 
nan

>  <ATC Codes>  (410) 
nan

>  <Level 4 ATC Codes>  (410) 
nan

>  <Level 3 ATC Codes>  (410) 
nan

>  <Level 2 ATC Codes>  (410) 
nan

>  <Level 1 ATC Codes>  (410) 
nan

>  <Indication Class>  (410) 
nan

>  <Patent>  (410) 
nan

>  <Drug Type>  (410) 
1:Synthetic Small Molecule

>  <Passes Rule of Five>  (410) 
False

>  <First In Class>  (410) 
False

>  <Chirality>  (410) 
Achiral Molecule

>  <Prodrug>  (410) 
False

>  <Oral>  (410) 
False

>  <Parenteral>  (410) 
False

>  <Topical>  (410) 
False

>  <Black Box>  (410) 
False

>  <Availability Type>  (410) 
Unknown

>  <Withdrawn Year>  (410) 
nan

>  <Withdrawn Reason>  (410) 
nan

>  <Withdrawn Country>  (410) 
nan

>  <Withdrawn Class>  (410) 
nan

>  <SMILES>  (410) 
FC(F)(F)c1ccc(/C=C/c2nc(COc3ccc(CCCCn4ccnn4)cc3)co2)cc1

>  <InChi Key>  (410) 
ZTFBIUXIQYRUNT-MDWZMJQESA-N

$$$$
CHEMBL3900409
     RDKit          2D

 31 34  0  0  0  0  0  0  0  0999 V2000
   -2.6401   -3.1891    0.0000 C   0  0  0  0  0  0  0  0  0  0  0  0
   -1.2135   -2.7256    0.0000 N   0  0  0  0  0  0  0  0  0  0  0  0
   -0.0000   -3.6073    0.0000 C   0  0  0  0  0  0  0  0  0  0  0  0
   -0.0000   -5.1073    0.0000 O   0  0  0  0  0  0  0  0  0  0  0  0
    1.2135   -2.7256    0.0000 O   0  0  0  0  0  0  0  0  0  0  0  0
    0.7500   -1.2990    0.0000 C   0  0  0  0  0  0  0  0  0  0  0  0
    1.5000    0.0000    0.0000 C   0  0  0  0  0  0  0  0  0  0  0  0
    0.7500    1.2990    0.0000 C   0  0  0  0  0  0  0  0  0  0  0  0
   -0.7500    1.2990    0.0000 C   0  0  0  0  0  0  0  0  0  0  0  0
   -1.5000    2.5981    0.0000 C   0  0  0  0  0  0  0  0  0  0  0  0
   -0.7500    3.8971    0.0000 C   0  0  0  0  0  0  0  0  0  0  0  0
   -1.5000    5.1962    0.0000 C   0  0  0  0  0  0  0  0  0  0  0  0
   -3.0000    5.1962    0.0000 C   0  0  0  0  0  0  0  0  0  0  0  0
   -3.7500    6.4952    0.0000 C   0  0  0  0  0  0  0  0  0  0  0  0
   -3.0000    7.7942    0.0000 C   0  0  0  0  0  0  0  0  0  0  0  0
   -3.7500    9.0933    0.0000 C   0  0  0  0  0  0  0  0  0  0  0  0
   -4.5000   10.3923    0.0000 N   0  0  0  0  0  0  0  0  0  0  0  0
   -1.5000    7.7942    0.0000 N   0  0  0  0  0  0  0  0  0  0  0  0
   -0.7500    9.0933    0.0000 C   0  0  0  0  0  0  0  0  0  0  0  0
   -1.5000   10.3923    0.0000 O   0  0  0  0  0  0  0  0  0  0  0  0
    0.7500    9.0933    0.0000 C   0  0  0  0  0  0  0  0  0  0  0  0
    1.4008   10.4447    0.0000 C   0  0  0  0  0  0  0  0  0  0  0  0
    2.8632   10.7785    0.0000 N   0  0  0  0  0  0  0  0  0  0  0  0
    4.0360    9.8433    0.0000 C   0  0  0  0  0  0  0  0  0  0  0  0
    4.0360    8.3433    0.0000 C   0  0  0  0  0  0  0  0  0  0  0  0
    2.8632    7.4080    0.0000 C   0  0  0  0  0  0  0  0  0  0  0  0
    1.4008    7.7418    0.0000 O   0  0  0  0  0  0  0  0  0  0  0  0
   -3.7500    3.8971    0.0000 C   0  0  0  0  0  0  0  0  0  0  0  0
   -3.0000    2.5981    0.0000 C   0  0  0  0  0  0  0  0  0  0  0  0
   -1.5000    0.0000    0.0000 C   0  0  0  0  0  0  0  0  0  0  0  0
   -0.7500   -1.2990    0.0000 C   0  0  0  0  0  0  0  0  0  0  0  0
  1  2  1  0
  2  3  1  0
  3  4  2  0
  3  5  1  0
  5  6  1  0
  6  7  2  0
  7  8  1  0
  8  9  2  0
  9 10  1  0
 10 11  2  0
 11 12  1  0
 12 13  2  0
 13 14  1  0
 15 14  1  1
 15 16  1  0
 16 17  3  0
 15 18  1  0
 18 19  1  0
 19 20  2  0
 19 21  1  0
 21 22  1  0
 22 23  1  0
 23 24  1  0
 24 25  1  0
 25 26  1  0
 26 27  1  0
 13 28  1  0
 28 29  2  0
  9 30  1  0
 30 31  2  0
 31  2  1  0
 31  6  1  0
 29 10  1  0
 27 21  1  0
M  END
>  <Synonyms>  (411) 
AZD 7986|AZD-7986|AZD7986|INS-1007|INS1007

>  <Research Codes>  (411) 
AZD 7986|AZD7986|INS-1007|INS1007

>  <Phase>  (411) 
1

>  <Applicants>  (411) 
nan

>  <USAN Stem>  (411) 
nan

>  <USAN Year>  (411) 
nan

>  <USAN Stem Definition>  (411) 
nan

>  <USAN Stem Substem>  (411) 
nan

>  <First Approval>  (411) 
nan

>  <ATC Codes>  (411) 
nan

>  <Level 4 ATC Codes>  (411) 
nan

>  <Level 3 ATC Codes>  (411) 
nan

>  <Level 2 ATC Codes>  (411) 
nan

>  <Level 1 ATC Codes>  (411) 
nan

>  <Indication Class>  (411) 
nan

>  <Patent>  (411) 
nan

>  <Drug Type>  (411) 
1:Synthetic Small Molecule

>  <Passes Rule of Five>  (411) 
True

>  <First In Class>  (411) 
False

>  <Chirality>  (411) 
Single Stereoisomer

>  <Prodrug>  (411) 
False

>  <Oral>  (411) 
False

>  <Parenteral>  (411) 
False

>  <Topical>  (411) 
False

>  <Black Box>  (411) 
False

>  <Availability Type>  (411) 
Unknown

>  <Withdrawn Year>  (411) 
nan

>  <Withdrawn Reason>  (411) 
nan

>  <Withdrawn Country>  (411) 
nan

>  <Withdrawn Class>  (411) 
nan

>  <SMILES>  (411) 
Cn1c(=O)oc2ccc(-c3ccc(C[C@@H](C#N)NC(=O)[C@@H]4CNCCCO4)cc3)cc21

>  <InChi Key>  (411) 
AEXFXNFMSAAELR-YMXDCFFPSA-N

$$$$
CHEMBL43068
     RDKit          2D

  8  7  0  0  0  0  0  0  0  0999 V2000
    0.0000    0.0000    0.0000 C   0  0  0  0  0  0  0  0  0  0  0  0
    1.2990    0.7500    0.0000 C   0  0  0  0  0  0  0  0  0  0  0  0
    2.5981   -0.0000    0.0000 C   0  0  0  0  0  0  0  0  0  0  0  0
    1.2990    2.2500    0.0000 C   0  0  0  0  0  0  0  0  0  0  0  0
    0.0000    3.0000    0.0000 N   0  0  0  0  0  0  0  0  0  0  0  0
    2.5981    3.0000    0.0000 C   0  0  0  0  0  0  0  0  0  0  0  0
    2.5981    4.5000    0.0000 O   0  0  0  0  0  0  0  0  0  0  0  0
    3.8971    2.2500    0.0000 O   0  0  0  0  0  0  0  0  0  0  0  0
  1  2  1  0
  2  3  1  0
  2  4  1  0
  4  5  1  0
  4  6  1  0
  6  7  2  0
  6  8  1  0
M  END
>  <Synonyms>  (412) 
L-VALINE|NSC-76038|VALINE

>  <Research Codes>  (412) 
NSC-76038

>  <Phase>  (412) 
1

>  <Applicants>  (412) 
nan

>  <USAN Stem>  (412) 
nan

>  <USAN Year>  (412) 
1979.0

>  <USAN Stem Definition>  (412) 
nan

>  <USAN Stem Substem>  (412) 
nan

>  <First Approval>  (412) 
nan

>  <ATC Codes>  (412) 
nan

>  <Level 4 ATC Codes>  (412) 
nan

>  <Level 3 ATC Codes>  (412) 
nan

>  <Level 2 ATC Codes>  (412) 
nan

>  <Level 1 ATC Codes>  (412) 
nan

>  <Indication Class>  (412) 
Amino Acid

>  <Patent>  (412) 
nan

>  <Drug Type>  (412) 
1:Synthetic Small Molecule

>  <Passes Rule of Five>  (412) 
True

>  <First In Class>  (412) 
False

>  <Chirality>  (412) 
Single Stereoisomer

>  <Prodrug>  (412) 
False

>  <Oral>  (412) 
False

>  <Parenteral>  (412) 
False

>  <Topical>  (412) 
False

>  <Black Box>  (412) 
False

>  <Availability Type>  (412) 
Unknown

>  <Withdrawn Year>  (412) 
nan

>  <Withdrawn Reason>  (412) 
nan

>  <Withdrawn Country>  (412) 
nan

>  <Withdrawn Class>  (412) 
nan

>  <SMILES>  (412) 
CC(C)[C@H](N)C(=O)O

>  <InChi Key>  (412) 
KZSNJWFQEVHDMF-UHFFFAOYSA-N

$$$$
CHEMBL273124
     RDKit          2D

 16 16  0  0  0  0  0  0  0  0999 V2000
    3.7500   -1.2990    0.0000 C   0  0  0  0  0  0  0  0  0  0  0  0
    3.0000    0.0000    0.0000 O   0  0  0  0  0  0  0  0  0  0  0  0
    1.5000    0.0000    0.0000 C   0  0  0  0  0  0  0  0  0  0  0  0
    0.7500   -1.2990    0.0000 N   0  0  0  0  0  0  0  0  0  0  0  0
   -0.7500   -1.2990    0.0000 C   0  0  0  0  0  0  0  0  0  0  0  0
   -1.5000   -2.5981    0.0000 C   0  0  0  0  0  0  0  0  0  0  0  0
   -2.2500   -3.8971    0.0000 Cl  0  0  0  0  0  0  0  0  0  0  0  0
   -2.7990   -1.8481    0.0000 Cl  0  0  0  0  0  0  0  0  0  0  0  0
   -0.2010   -3.3481    0.0000 Cl  0  0  0  0  0  0  0  0  0  0  0  0
   -1.5000    0.0000    0.0000 C   0  0  0  0  0  0  0  0  0  0  0  0
   -3.0000    0.0000    0.0000 Cl  0  0  0  0  0  0  0  0  0  0  0  0
   -0.7500    1.2990    0.0000 C   0  0  0  0  0  0  0  0  0  0  0  0
   -1.5000    2.5981    0.0000 O   0  0  0  0  0  0  0  0  0  0  0  0
   -0.7500    3.8971    0.0000 C   0  0  0  0  0  0  0  0  0  0  0  0
    0.7500    1.2990    0.0000 C   0  0  0  0  0  0  0  0  0  0  0  0
    1.5000    2.5981    0.0000 Cl  0  0  0  0  0  0  0  0  0  0  0  0
  1  2  1  0
  2  3  1  0
  3  4  2  0
  4  5  1  0
  5  6  1  0
  6  7  1  0
  6  8  1  0
  6  9  1  0
  5 10  2  0
 10 11  1  0
 10 12  1  0
 12 13  1  0
 13 14  1  0
 12 15  2  0
 15 16  1  0
 15  3  1  0
M  END
>  <Synonyms>  (413) 
NSC-338720|PENCLOMEDINE

>  <Research Codes>  (413) 
NSC-338720

>  <Phase>  (413) 
1

>  <Applicants>  (413) 
nan

>  <USAN Stem>  (413) 
nan

>  <USAN Year>  (413) 
nan

>  <USAN Stem Definition>  (413) 
nan

>  <USAN Stem Substem>  (413) 
nan

>  <First Approval>  (413) 
nan

>  <ATC Codes>  (413) 
nan

>  <Level 4 ATC Codes>  (413) 
nan

>  <Level 3 ATC Codes>  (413) 
nan

>  <Level 2 ATC Codes>  (413) 
nan

>  <Level 1 ATC Codes>  (413) 
nan

>  <Indication Class>  (413) 
nan

>  <Patent>  (413) 
nan

>  <Drug Type>  (413) 
1:Synthetic Small Molecule

>  <Passes Rule of Five>  (413) 
True

>  <First In Class>  (413) 
False

>  <Chirality>  (413) 
Achiral Molecule

>  <Prodrug>  (413) 
False

>  <Oral>  (413) 
False

>  <Parenteral>  (413) 
False

>  <Topical>  (413) 
False

>  <Black Box>  (413) 
False

>  <Availability Type>  (413) 
Unknown

>  <Withdrawn Year>  (413) 
nan

>  <Withdrawn Reason>  (413) 
nan

>  <Withdrawn Country>  (413) 
nan

>  <Withdrawn Class>  (413) 
nan

>  <SMILES>  (413) 
COc1nc(C(Cl)(Cl)Cl)c(Cl)c(OC)c1Cl

>  <InChi Key>  (413) 
DZVPGIORVGSQMC-UHFFFAOYSA-N

$$$$
CHEMBL2396989
     RDKit          2D

 27 30  0  0  0  0  0  0  0  0999 V2000
   -0.0967    5.1517    0.0000 N   0  0  0  0  0  0  0  0  0  0  0  0
   -0.4086    3.6844    0.0000 C   0  0  0  0  0  0  0  0  0  0  0  0
    0.7062    2.6807    0.0000 N   0  0  0  0  0  0  0  0  0  0  0  0
    0.3943    1.2135    0.0000 C   0  0  0  0  0  0  0  0  0  0  0  0
    1.8615    1.5254    0.0000 C   0  0  0  0  0  0  0  0  0  0  0  0
    2.8652    0.4107    0.0000 C   0  0  0  0  0  0  0  0  0  0  0  0
    4.3324    0.7225    0.0000 C   0  0  0  0  0  0  0  0  0  0  0  0
    5.3361   -0.3922    0.0000 N   0  0  0  0  0  0  0  0  0  0  0  0
    4.8726   -1.8188    0.0000 C   0  0  0  0  0  0  0  0  0  0  0  0
    3.4054   -2.1306    0.0000 O   0  0  0  0  0  0  0  0  0  0  0  0
    5.8763   -2.9335    0.0000 C   0  0  0  0  0  0  0  0  0  0  0  0
    5.4128   -4.3601    0.0000 C   0  0  0  0  0  0  0  0  0  0  0  0
    6.4165   -5.4748    0.0000 C   0  0  0  0  0  0  0  0  0  0  0  0
    7.8837   -5.1629    0.0000 C   0  0  0  0  0  0  0  0  0  0  0  0
    8.8874   -6.2776    0.0000 F   0  0  0  0  0  0  0  0  0  0  0  0
    8.3472   -3.7363    0.0000 C   0  0  0  0  0  0  0  0  0  0  0  0
    7.3435   -2.6216    0.0000 N   0  0  0  0  0  0  0  0  0  0  0  0
    4.7960    2.1491    0.0000 C   0  0  0  0  0  0  0  0  0  0  0  0
    3.7923    3.2638    0.0000 C   0  0  0  0  0  0  0  0  0  0  0  0
    2.3250    2.9520    0.0000 C   0  0  0  0  0  0  0  0  0  0  0  0
    1.3213    4.0667    0.0000 F   0  0  0  0  0  0  0  0  0  0  0  0
    1.2760    0.0000    0.0000 C   0  0  0  0  0  0  0  0  0  0  0  0
    0.3943   -1.2135    0.0000 O   0  0  0  0  0  0  0  0  0  0  0  0
   -1.0323   -0.7500    0.0000 C   0  0  0  0  0  0  0  0  0  0  0  0
   -1.0323    0.7500    0.0000 C   0  0  0  0  0  0  0  0  0  0  0  0
   -2.1470    1.7537    0.0000 C   0  0  0  0  0  0  0  0  0  0  0  0
   -1.8351    3.2209    0.0000 S   0  0  0  0  0  0  0  0  0  0  0  0
  1  2  2  0
  2  3  1  0
  3  4  1  0
  4  5  1  6
  5  6  2  0
  6  7  1  0
  7  8  1  0
  8  9  1  0
  9 10  2  0
  9 11  1  0
 11 12  2  0
 12 13  1  0
 13 14  2  0
 14 15  1  0
 14 16  1  0
 16 17  2  0
  7 18  2  0
 18 19  1  0
 19 20  2  0
 20 21  1  0
  4 22  1  0
 22 23  1  0
 23 24  1  0
 25 24  1  1
 25 26  1  0
 26 27  1  0
 27  2  1  0
 25  4  1  0
 20  5  1  0
 17 11  1  0
M  END
>  <Synonyms>  (414) 
LY-2886721|LY2886721

>  <Research Codes>  (414) 
LY2886721

>  <Phase>  (414) 
1

>  <Applicants>  (414) 
nan

>  <USAN Stem>  (414) 
nan

>  <USAN Year>  (414) 
nan

>  <USAN Stem Definition>  (414) 
nan

>  <USAN Stem Substem>  (414) 
nan

>  <First Approval>  (414) 
nan

>  <ATC Codes>  (414) 
nan

>  <Level 4 ATC Codes>  (414) 
nan

>  <Level 3 ATC Codes>  (414) 
nan

>  <Level 2 ATC Codes>  (414) 
nan

>  <Level 1 ATC Codes>  (414) 
nan

>  <Indication Class>  (414) 
nan

>  <Patent>  (414) 
nan

>  <Drug Type>  (414) 
1:Synthetic Small Molecule

>  <Passes Rule of Five>  (414) 
True

>  <First In Class>  (414) 
False

>  <Chirality>  (414) 
Single Stereoisomer

>  <Prodrug>  (414) 
False

>  <Oral>  (414) 
False

>  <Parenteral>  (414) 
False

>  <Topical>  (414) 
False

>  <Black Box>  (414) 
False

>  <Availability Type>  (414) 
Unknown

>  <Withdrawn Year>  (414) 
nan

>  <Withdrawn Reason>  (414) 
nan

>  <Withdrawn Country>  (414) 
nan

>  <Withdrawn Class>  (414) 
nan

>  <SMILES>  (414) 
NC1=N[C@@]2(c3cc(NC(=O)c4ccc(F)cn4)ccc3F)COC[C@H]2CS1

>  <InChi Key>  (414) 
NIDRNVHMMDAAIK-YPMLDQLKSA-N

$$$$
CHEMBL278462
     RDKit          2D

 16 17  0  0  0  0  0  0  0  0999 V2000
    9.1570    2.3093    0.0000 C   0  0  0  0  0  0  0  0  0  0  0  0
    8.8451    3.7766    0.0000 C   0  0  0  0  0  0  0  0  0  0  0  0
    8.5333    5.2438    0.0000 C   0  0  0  0  0  0  0  0  0  0  0  0
   10.3123    4.0884    0.0000 C   0  0  0  0  0  0  0  0  0  0  0  0
    7.3779    3.4647    0.0000 C   0  0  0  0  0  0  0  0  0  0  0  0
    6.3742    4.5794    0.0000 C   0  0  0  0  0  0  0  0  0  0  0  0
    4.9070    4.2675    0.0000 C   0  0  0  0  0  0  0  0  0  0  0  0
    3.4398    3.9557    0.0000 C   0  0  0  0  0  0  0  0  0  0  0  0
    1.9725    3.6438    0.0000 C   0  0  0  0  0  0  0  0  0  0  0  0
    0.5460    4.1073    0.0000 C   0  0  0  0  0  0  0  0  0  0  0  0
    0.8578    2.6401    0.0000 C   0  0  0  0  0  0  0  0  0  0  0  0
    0.3943    1.2135    0.0000 C   0  0  0  0  0  0  0  0  0  0  0  0
    1.2760    0.0000    0.0000 C   0  0  0  0  0  0  0  0  0  0  0  0
    0.3943   -1.2135    0.0000 N   0  0  0  0  0  0  0  0  0  0  0  0
   -1.0323   -0.7500    0.0000 C   0  0  0  0  0  0  0  0  0  0  0  0
   -1.0323    0.7500    0.0000 N   0  0  0  0  0  0  0  0  0  0  0  0
  1  2  1  0
  2  3  1  0
  2  4  1  0
  2  5  1  0
  5  6  1  0
  6  7  1  0
  7  8  3  0
  9  8  1  1
  9 10  1  0
 10 11  1  0
 11 12  1  6
 12 13  2  0
 13 14  1  0
 14 15  1  0
 15 16  2  0
 11  9  1  0
 16 12  1  0
M  END
>  <Synonyms>  (415) 
CIPRALISANT|Cipralisant|GT-2331

>  <Research Codes>  (415) 
GT-2331

>  <Phase>  (415) 
1

>  <Applicants>  (415) 
nan

>  <USAN Stem>  (415) 
'-isant'

>  <USAN Year>  (415) 
2001.0

>  <USAN Stem Definition>  (415) 
histamine H3 receptor antagonists

>  <USAN Stem Substem>  (415) 
'-isant(-isant)'

>  <First Approval>  (415) 
nan

>  <ATC Codes>  (415) 
nan

>  <Level 4 ATC Codes>  (415) 
nan

>  <Level 3 ATC Codes>  (415) 
nan

>  <Level 2 ATC Codes>  (415) 
nan

>  <Level 1 ATC Codes>  (415) 
nan

>  <Indication Class>  (415) 
nan

>  <Patent>  (415) 
nan

>  <Drug Type>  (415) 
1:Synthetic Small Molecule

>  <Passes Rule of Five>  (415) 
True

>  <First In Class>  (415) 
False

>  <Chirality>  (415) 
Single Stereoisomer

>  <Prodrug>  (415) 
False

>  <Oral>  (415) 
False

>  <Parenteral>  (415) 
False

>  <Topical>  (415) 
False

>  <Black Box>  (415) 
False

>  <Availability Type>  (415) 
Unknown

>  <Withdrawn Year>  (415) 
nan

>  <Withdrawn Reason>  (415) 
nan

>  <Withdrawn Country>  (415) 
nan

>  <Withdrawn Class>  (415) 
nan

>  <SMILES>  (415) 
CC(C)(C)CCC#C[C@@H]1C[C@H]1c1c[nH]cn1

>  <InChi Key>  (415) 
CVKJAXCQPFOAIN-VXGBXAGGSA-N

$$$$
CHEMBL4093031
     RDKit          2D

 40 45  0  0  0  0  0  0  0  0999 V2000
   -4.3786   -5.1199    0.0000 C   0  0  0  0  0  0  0  0  0  0  0  0
   -2.9520   -4.6564    0.0000 N   0  0  0  0  0  0  0  0  0  0  0  0
   -2.6401   -3.1891    0.0000 C   0  0  0  0  0  0  0  0  0  0  0  0
   -3.7548   -2.1855    0.0000 O   0  0  0  0  0  0  0  0  0  0  0  0
   -1.2135   -2.7256    0.0000 C   0  0  0  0  0  0  0  0  0  0  0  0
   -0.0000   -3.6073    0.0000 C   0  0  0  0  0  0  0  0  0  0  0  0
   -0.0000   -5.1073    0.0000 C   0  0  0  0  0  0  0  0  0  0  0  0
   -1.2990   -5.8573    0.0000 C   0  0  0  0  0  0  0  0  0  0  0  0
   -1.2990   -7.3573    0.0000 C   0  0  0  0  0  0  0  0  0  0  0  0
   -0.0000   -8.1073    0.0000 C   0  0  0  0  0  0  0  0  0  0  0  0
   -0.0000   -9.6073    0.0000 F   0  0  0  0  0  0  0  0  0  0  0  0
    1.2990   -7.3573    0.0000 C   0  0  0  0  0  0  0  0  0  0  0  0
    1.2990   -5.8573    0.0000 C   0  0  0  0  0  0  0  0  0  0  0  0
    1.2135   -2.7256    0.0000 O   0  0  0  0  0  0  0  0  0  0  0  0
    0.7500   -1.2990    0.0000 C   0  0  0  0  0  0  0  0  0  0  0  0
    1.5000    0.0000    0.0000 C   0  0  0  0  0  0  0  0  0  0  0  0
    0.7500    1.2990    0.0000 C   0  0  0  0  0  0  0  0  0  0  0  0
   -0.7500    1.2990    0.0000 C   0  0  0  0  0  0  0  0  0  0  0  0
   -1.5000    2.5981    0.0000 C   0  0  0  0  0  0  0  0  0  0  0  0
   -0.7500    3.8971    0.0000 C   0  0  0  0  0  0  0  0  0  0  0  0
   -1.5000    5.1962    0.0000 C   0  0  0  0  0  0  0  0  0  0  0  0
   -0.7500    6.4952    0.0000 C   0  0  0  0  0  0  0  0  0  0  0  0
   -1.5000    7.7942    0.0000 O   0  0  0  0  0  0  0  0  0  0  0  0
    0.7500    6.4952    0.0000 N   0  0  0  0  0  0  0  0  0  0  0  0
    1.5000    7.7942    0.0000 C   0  0  0  0  0  0  0  0  0  0  0  0
    2.9095    7.2812    0.0000 C   0  0  0  0  0  0  0  0  0  0  0  0
    4.0586    8.2454    0.0000 N   0  0  0  0  0  0  0  0  0  0  0  0
    5.4681    7.7323    0.0000 C   0  0  0  0  0  0  0  0  0  0  0  0
    5.7286    6.2551    0.0000 C   0  0  0  0  0  0  0  0  0  0  0  0
    4.5796    5.2910    0.0000 C   0  0  0  0  0  0  0  0  0  0  0  0
    3.1700    5.8040    0.0000 N   0  0  0  0  0  0  0  0  0  0  0  0
    1.7605    9.2714    0.0000 C   0  0  0  0  0  0  0  0  0  0  0  0
    0.3509    8.7584    0.0000 C   0  0  0  0  0  0  0  0  0  0  0  0
   -3.0000    5.1962    0.0000 C   0  0  0  0  0  0  0  0  0  0  0  0
   -3.7500    3.8971    0.0000 C   0  0  0  0  0  0  0  0  0  0  0  0
   -3.0000    2.5981    0.0000 C   0  0  0  0  0  0  0  0  0  0  0  0
   -3.7500    1.2990    0.0000 C   0  0  0  0  0  0  0  0  0  0  0  0
   -1.5000    0.0000    0.0000 C   0  0  0  0  0  0  0  0  0  0  0  0
   -3.0000    0.0000    0.0000 F   0  0  0  0  0  0  0  0  0  0  0  0
   -0.7500   -1.2990    0.0000 C   0  0  0  0  0  0  0  0  0  0  0  0
  1  2  1  0
  2  3  1  0
  3  4  2  0
  3  5  1  0
  5  6  2  0
  6  7  1  0
  7  8  2  0
  8  9  1  0
  9 10  2  0
 10 11  1  0
 10 12  1  0
 12 13  2  0
  6 14  1  0
 14 15  1  0
 15 16  2  0
 16 17  1  0
 17 18  2  0
 18 19  1  0
 19 20  2  0
 20 21  1  0
 21 22  1  0
 22 23  2  0
 22 24  1  0
 24 25  1  0
 25 26  1  0
 26 27  2  0
 27 28  1  0
 28 29  2  0
 29 30  1  0
 30 31  2  0
 25 32  1  0
 32 33  1  0
 21 34  2  0
 34 35  1  0
 35 36  2  0
 36 37  1  0
 18 38  1  0
 38 39  1  0
 38 40  2  0
 40  5  1  0
 13  7  1  0
 40 15  1  0
 36 19  1  0
 33 25  1  0
 31 26  1  0
M  END
>  <Synonyms>  (416) 
BMS-929075

>  <Research Codes>  (416) 
nan

>  <Phase>  (416) 
1

>  <Applicants>  (416) 
nan

>  <USAN Stem>  (416) 
nan

>  <USAN Year>  (416) 
nan

>  <USAN Stem Definition>  (416) 
nan

>  <USAN Stem Substem>  (416) 
nan

>  <First Approval>  (416) 
nan

>  <ATC Codes>  (416) 
nan

>  <Level 4 ATC Codes>  (416) 
nan

>  <Level 3 ATC Codes>  (416) 
nan

>  <Level 2 ATC Codes>  (416) 
nan

>  <Level 1 ATC Codes>  (416) 
nan

>  <Indication Class>  (416) 
nan

>  <Patent>  (416) 
nan

>  <Drug Type>  (416) 
1:Synthetic Small Molecule

>  <Passes Rule of Five>  (416) 
False

>  <First In Class>  (416) 
False

>  <Chirality>  (416) 
Achiral Molecule

>  <Prodrug>  (416) 
False

>  <Oral>  (416) 
False

>  <Parenteral>  (416) 
False

>  <Topical>  (416) 
False

>  <Black Box>  (416) 
False

>  <Availability Type>  (416) 
Unknown

>  <Withdrawn Year>  (416) 
nan

>  <Withdrawn Reason>  (416) 
nan

>  <Withdrawn Country>  (416) 
nan

>  <Withdrawn Class>  (416) 
nan

>  <SMILES>  (416) 
CNC(=O)c1c(-c2ccc(F)cc2)oc2ccc(-c3cc(C(=O)NC4(c5ncccn5)CC4)ccc3C)c(F)c12

>  <InChi Key>  (416) 
LZAUGCMVNLZVJV-UHFFFAOYSA-N

$$$$
CHEMBL1951032
     RDKit          2D

 33 35  0  0  0  0  0  0  0  0999 V2000
    3.7500   -1.2990    0.0000 C   0  0  0  0  0  0  0  0  0  0  0  0
    3.0000    0.0000    0.0000 O   0  0  0  0  0  0  0  0  0  0  0  0
    1.5000    0.0000    0.0000 C   0  0  0  0  0  0  0  0  0  0  0  0
    0.7500   -1.2990    0.0000 C   0  0  0  0  0  0  0  0  0  0  0  0
    1.5000   -2.5981    0.0000 N   0  0  0  0  0  0  0  0  0  0  0  0
    0.7500   -3.8971    0.0000 C   0  0  0  0  0  0  0  0  0  0  0  0
   -0.7500   -3.8971    0.0000 C   0  0  0  0  0  0  0  0  0  0  0  0
   -1.5000   -5.1962    0.0000 C   0  0  0  0  0  0  0  0  0  0  0  0
   -0.7500   -6.4952    0.0000 C   0  0  0  0  0  0  0  0  0  0  0  0
   -1.5000   -7.7942    0.0000 S   0  0  0  0  0  0  0  0  0  0  0  0
   -2.2500   -9.0933    0.0000 C   0  0  0  0  0  0  0  0  0  0  0  0
   -0.2010   -8.5442    0.0000 O   0  0  0  0  0  0  0  0  0  0  0  0
   -2.7990   -7.0442    0.0000 O   0  0  0  0  0  0  0  0  0  0  0  0
    0.7500   -6.4952    0.0000 N   0  0  0  0  0  0  0  0  0  0  0  0
    1.5000   -5.1962    0.0000 C   0  0  0  0  0  0  0  0  0  0  0  0
    3.0000   -5.1962    0.0000 C   0  0  0  0  0  0  0  0  0  0  0  0
   -0.7500   -1.2990    0.0000 N   0  0  0  0  0  0  0  0  0  0  0  0
   -1.5000    0.0000    0.0000 C   0  0  0  0  0  0  0  0  0  0  0  0
   -0.7500    1.2990    0.0000 N   0  0  0  0  0  0  0  0  0  0  0  0
    0.7500    1.2990    0.0000 C   0  0  0  0  0  0  0  0  0  0  0  0
    1.5000    2.5981    0.0000 O   0  0  0  0  0  0  0  0  0  0  0  0
    0.7500    3.8971    0.0000 C   0  0  0  0  0  0  0  0  0  0  0  0
    1.5000    5.1962    0.0000 C   0  0  0  0  0  0  0  0  0  0  0  0
    0.7500    6.4952    0.0000 C   0  0  0  0  0  0  0  0  0  0  0  0
   -0.7500    6.4952    0.0000 N   0  0  0  0  0  0  0  0  0  0  0  0
   -1.5000    7.7942    0.0000 C   0  0  0  0  0  0  0  0  0  0  0  0
   -0.7500    9.0933    0.0000 O   0  0  0  0  0  0  0  0  0  0  0  0
   -3.0000    7.7942    0.0000 O   0  0  0  0  0  0  0  0  0  0  0  0
   -3.7500    9.0933    0.0000 C   0  0  0  0  0  0  0  0  0  0  0  0
   -5.2500    9.0933    0.0000 C   0  0  0  0  0  0  0  0  0  0  0  0
   -3.0000   10.3923    0.0000 C   0  0  0  0  0  0  0  0  0  0  0  0
   -1.5000    5.1962    0.0000 C   0  0  0  0  0  0  0  0  0  0  0  0
   -0.7500    3.8971    0.0000 C   0  0  0  0  0  0  0  0  0  0  0  0
  1  2  1  0
  2  3  1  0
  3  4  1  0
  4  5  2  3
  5  6  1  0
  6  7  2  0
  7  8  1  0
  8  9  2  0
  9 10  1  0
 10 11  1  0
 10 12  2  0
 10 13  2  0
  9 14  1  0
 14 15  2  0
 15 16  1  0
  4 17  1  0
 17 18  2  0
 18 19  1  0
 19 20  1  0
 20 21  1  0
 21 22  1  0
 22 23  1  0
 23 24  1  0
 24 25  1  0
 25 26  1  0
 26 27  2  0
 26 28  1  0
 28 29  1  0
 29 30  1  0
 29 31  1  0
 25 32  1  0
 32 33  1  0
 20  3  2  0
 33 22  1  0
 15  6  1  0
M  END
>  <Synonyms>  (417) 
ADP-597|JNJ-38431055

>  <Research Codes>  (417) 
JNJ-38431055

>  <Phase>  (417) 
1

>  <Applicants>  (417) 
nan

>  <USAN Stem>  (417) 
nan

>  <USAN Year>  (417) 
nan

>  <USAN Stem Definition>  (417) 
nan

>  <USAN Stem Substem>  (417) 
nan

>  <First Approval>  (417) 
nan

>  <ATC Codes>  (417) 
nan

>  <Level 4 ATC Codes>  (417) 
nan

>  <Level 3 ATC Codes>  (417) 
nan

>  <Level 2 ATC Codes>  (417) 
nan

>  <Level 1 ATC Codes>  (417) 
nan

>  <Indication Class>  (417) 
nan

>  <Patent>  (417) 
nan

>  <Drug Type>  (417) 
1:Synthetic Small Molecule

>  <Passes Rule of Five>  (417) 
True

>  <First In Class>  (417) 
False

>  <Chirality>  (417) 
Achiral Molecule

>  <Prodrug>  (417) 
False

>  <Oral>  (417) 
False

>  <Parenteral>  (417) 
False

>  <Topical>  (417) 
False

>  <Black Box>  (417) 
False

>  <Availability Type>  (417) 
Unknown

>  <Withdrawn Year>  (417) 
nan

>  <Withdrawn Reason>  (417) 
nan

>  <Withdrawn Country>  (417) 
nan

>  <Withdrawn Class>  (417) 
nan

>  <SMILES>  (417) 
COc1c(Nc2ccc(S(C)(=O)=O)nc2C)ncnc1OC1CCN(C(=O)OC(C)C)CC1

>  <InChi Key>  (417) 
WPDCHTSXOPUOII-UHFFFAOYSA-N

$$$$
CHEMBL259084
     RDKit          2D

 34 38  0  0  0  0  0  0  0  0999 V2000
   -3.0000   -7.7942    0.0000 O   0  0  0  0  0  0  0  0  0  0  0  0
   -1.5000   -7.7942    0.0000 C   0  0  0  0  0  0  0  0  0  0  0  0
   -0.7500   -9.0933    0.0000 O   0  0  0  0  0  0  0  0  0  0  0  0
   -0.7500   -6.4952    0.0000 C   0  0  0  0  0  0  0  0  0  0  0  0
   -1.5000   -5.1962    0.0000 C   0  0  0  0  0  0  0  0  0  0  0  0
   -0.7500   -3.8971    0.0000 C   0  0  0  0  0  0  0  0  0  0  0  0
    0.7500   -3.8971    0.0000 C   0  0  0  0  0  0  0  0  0  0  0  0
    1.5000   -2.5981    0.0000 N   0  0  0  0  0  0  0  0  0  0  0  0
    0.7500   -1.2990    0.0000 C   0  0  0  0  0  0  0  0  0  0  0  0
    1.5000    0.0000    0.0000 N   0  0  0  0  0  0  0  0  0  0  0  0
    0.7500    1.2990    0.0000 C   0  0  0  0  0  0  0  0  0  0  0  0
   -0.7500    1.2990    0.0000 C   0  0  0  0  0  0  0  0  0  0  0  0
   -1.5000    0.0000    0.0000 C   0  0  0  0  0  0  0  0  0  0  0  0
   -0.7500   -1.2990    0.0000 N   0  0  0  0  0  0  0  0  0  0  0  0
   -2.9832   -0.2236    0.0000 C   0  0  0  0  0  0  0  0  0  0  0  0
   -3.3170   -1.6860    0.0000 C   0  0  0  0  0  0  0  0  0  0  0  0
   -4.7504   -2.1281    0.0000 C   0  0  0  0  0  0  0  0  0  0  0  0
   -5.8500   -1.1078    0.0000 C   0  0  0  0  0  0  0  0  0  0  0  0
   -7.2833   -1.5500    0.0000 Cl  0  0  0  0  0  0  0  0  0  0  0  0
   -5.5162    0.3546    0.0000 C   0  0  0  0  0  0  0  0  0  0  0  0
   -4.0828    0.7967    0.0000 C   0  0  0  0  0  0  0  0  0  0  0  0
   -3.9707    2.2925    0.0000 C   0  0  0  0  0  0  0  0  0  0  0  0
   -5.2698    3.0425    0.0000 C   0  0  0  0  0  0  0  0  0  0  0  0
   -5.2698    4.5425    0.0000 C   0  0  0  0  0  0  0  0  0  0  0  0
   -3.9707    5.2925    0.0000 F   0  0  0  0  0  0  0  0  0  0  0  0
   -6.5688    5.2925    0.0000 C   0  0  0  0  0  0  0  0  0  0  0  0
   -7.8678    4.5425    0.0000 C   0  0  0  0  0  0  0  0  0  0  0  0
   -7.8678    3.0425    0.0000 C   0  0  0  0  0  0  0  0  0  0  0  0
   -6.5688    2.2925    0.0000 C   0  0  0  0  0  0  0  0  0  0  0  0
   -6.5688    0.7925    0.0000 F   0  0  0  0  0  0  0  0  0  0  0  0
   -2.7314    3.1375    0.0000 N   0  0  0  0  0  0  0  0  0  0  0  0
   -1.2980    2.6953    0.0000 C   0  0  0  0  0  0  0  0  0  0  0  0
    1.5000   -5.1962    0.0000 C   0  0  0  0  0  0  0  0  0  0  0  0
    0.7500   -6.4952    0.0000 C   0  0  0  0  0  0  0  0  0  0  0  0
  1  2  2  0
  2  3  1  0
  2  4  1  0
  4  5  2  0
  5  6  1  0
  6  7  2  0
  7  8  1  0
  8  9  2  3
  9 10  1  0
 10 11  1  0
 11 12  2  0
 12 13  1  0
 13 14  2  0
 13 15  1  0
 15 16  2  0
 16 17  1  0
 17 18  2  0
 18 19  1  0
 18 20  1  0
 20 21  2  0
 21 22  1  0
 22 23  1  0
 23 24  2  0
 24 25  1  0
 24 26  1  0
 26 27  2  0
 27 28  1  0
 28 29  2  0
 29 30  1  0
 22 31  2  0
 31 32  1  0
  7 33  1  0
 33 34  2  0
 34  4  1  0
 14  9  1  0
 21 15  1  0
 29 23  1  0
 32 12  1  0
M  END
>  <Synonyms>  (418) 
MLN 8054|MLN-8054

>  <Research Codes>  (418) 
MLN 8054|MLN-8054

>  <Phase>  (418) 
1

>  <Applicants>  (418) 
nan

>  <USAN Stem>  (418) 
nan

>  <USAN Year>  (418) 
nan

>  <USAN Stem Definition>  (418) 
nan

>  <USAN Stem Substem>  (418) 
nan

>  <First Approval>  (418) 
nan

>  <ATC Codes>  (418) 
nan

>  <Level 4 ATC Codes>  (418) 
nan

>  <Level 3 ATC Codes>  (418) 
nan

>  <Level 2 ATC Codes>  (418) 
nan

>  <Level 1 ATC Codes>  (418) 
nan

>  <Indication Class>  (418) 
nan

>  <Patent>  (418) 
nan

>  <Drug Type>  (418) 
1:Synthetic Small Molecule

>  <Passes Rule of Five>  (418) 
False

>  <First In Class>  (418) 
False

>  <Chirality>  (418) 
Achiral Molecule

>  <Prodrug>  (418) 
False

>  <Oral>  (418) 
False

>  <Parenteral>  (418) 
False

>  <Topical>  (418) 
False

>  <Black Box>  (418) 
False

>  <Availability Type>  (418) 
Unknown

>  <Withdrawn Year>  (418) 
nan

>  <Withdrawn Reason>  (418) 
nan

>  <Withdrawn Country>  (418) 
nan

>  <Withdrawn Class>  (418) 
nan

>  <SMILES>  (418) 
O=C(O)c1ccc(Nc2ncc3c(n2)-c2ccc(Cl)cc2C(c2c(F)cccc2F)=NC3)cc1

>  <InChi Key>  (418) 
HHFBDROWDBDFBR-UHFFFAOYSA-N

$$$$
CHEMBL4290141
     RDKit          2D

 29 32  0  0  0  0  0  0  0  0999 V2000
    2.6491    0.9642    0.0000 C   0  0  0  0  0  0  0  0  0  0  0  0
    1.5000    0.0000    0.0000 C   0  0  0  0  0  0  0  0  0  0  0  0
    2.6491   -0.9642    0.0000 C   0  0  0  0  0  0  0  0  0  0  0  0
    0.7500   -1.2990    0.0000 C   0  0  0  0  0  0  0  0  0  0  0  0
   -0.7500   -1.2990    0.0000 C   0  0  0  0  0  0  0  0  0  0  0  0
   -1.5000   -2.5981    0.0000 O   0  0  0  0  0  0  0  0  0  0  0  0
   -3.0000   -2.5981    0.0000 C   0  0  0  0  0  0  0  0  0  0  0  0
   -3.7500   -1.2990    0.0000 C   0  0  0  0  0  0  0  0  0  0  0  0
   -5.2500   -1.2990    0.0000 C   0  0  0  0  0  0  0  0  0  0  0  0
   -6.0000   -2.5981    0.0000 C   0  0  0  0  0  0  0  0  0  0  0  0
   -7.5000   -2.5981    0.0000 C   0  0  0  0  0  0  0  0  0  0  0  0
   -8.2500   -1.2990    0.0000 C   0  0  0  0  0  0  0  0  0  0  0  0
   -9.7500   -1.2990    0.0000 C   0  0  0  0  0  0  0  0  0  0  0  0
  -10.5000   -2.5981    0.0000 C   0  0  0  0  0  0  0  0  0  0  0  0
  -12.0000   -2.5981    0.0000 C   0  0  0  0  0  0  0  0  0  0  0  0
  -12.8817   -3.8116    0.0000 C   0  0  0  0  0  0  0  0  0  0  0  0
  -14.3083   -3.3481    0.0000 N   0  0  0  0  0  0  0  0  0  0  0  0
  -14.3083   -1.8481    0.0000 N   0  0  0  0  0  0  0  0  0  0  0  0
  -12.8817   -1.3846    0.0000 C   0  0  0  0  0  0  0  0  0  0  0  0
   -9.7500   -3.8971    0.0000 C   0  0  0  0  0  0  0  0  0  0  0  0
   -8.2500   -3.8971    0.0000 C   0  0  0  0  0  0  0  0  0  0  0  0
   -7.5000   -5.1962    0.0000 O   0  0  0  0  0  0  0  0  0  0  0  0
   -5.2500   -3.8971    0.0000 N   0  0  0  0  0  0  0  0  0  0  0  0
   -3.7500   -3.8971    0.0000 N   0  0  0  0  0  0  0  0  0  0  0  0
   -1.5000    0.0000    0.0000 C   0  0  0  0  0  0  0  0  0  0  0  0
   -0.7500    1.2990    0.0000 C   0  0  0  0  0  0  0  0  0  0  0  0
   -2.1595    1.8121    0.0000 C   0  0  0  0  0  0  0  0  0  0  0  0
   -0.4895    2.7762    0.0000 C   0  0  0  0  0  0  0  0  0  0  0  0
    0.7500    1.2990    0.0000 N   0  0  0  0  0  0  0  0  0  0  0  0
  1  2  1  0
  2  3  1  0
  2  4  1  0
  4  5  1  0
  5  6  1  0
  6  7  1  0
  7  8  2  0
  8  9  1  0
  9 10  2  0
 10 11  1  0
 11 12  2  0
 12 13  1  0
 13 14  2  0
 14 15  1  0
 15 16  1  0
 16 17  2  0
 17 18  1  0
 18 19  1  0
 14 20  1  0
 20 21  2  0
 21 22  1  0
 10 23  1  0
 23 24  2  0
  5 25  1  0
 25 26  1  0
 26 27  1  0
 26 28  1  0
 26 29  1  0
 29  2  1  0
 24  7  1  0
 21 11  1  0
 19 15  2  0
M  END
>  <Synonyms>  (419) 
BRANAPLAM|LMI-070|LMI070

>  <Research Codes>  (419) 
LMI-070|LMI070

>  <Phase>  (419) 
1

>  <Applicants>  (419) 
nan

>  <USAN Stem>  (419) 
'-plam'

>  <USAN Year>  (419) 
nan

>  <USAN Stem Definition>  (419) 
survival motor neurin SMN1 and SMN2 splicing modulators

>  <USAN Stem Substem>  (419) 
'-plam(-plam)'

>  <First Approval>  (419) 
nan

>  <ATC Codes>  (419) 
nan

>  <Level 4 ATC Codes>  (419) 
nan

>  <Level 3 ATC Codes>  (419) 
nan

>  <Level 2 ATC Codes>  (419) 
nan

>  <Level 1 ATC Codes>  (419) 
nan

>  <Indication Class>  (419) 
nan

>  <Patent>  (419) 
nan

>  <Drug Type>  (419) 
1:Synthetic Small Molecule

>  <Passes Rule of Five>  (419) 
True

>  <First In Class>  (419) 
False

>  <Chirality>  (419) 
Achiral Molecule

>  <Prodrug>  (419) 
False

>  <Oral>  (419) 
False

>  <Parenteral>  (419) 
False

>  <Topical>  (419) 
False

>  <Black Box>  (419) 
False

>  <Availability Type>  (419) 
Unknown

>  <Withdrawn Year>  (419) 
nan

>  <Withdrawn Reason>  (419) 
nan

>  <Withdrawn Country>  (419) 
nan

>  <Withdrawn Class>  (419) 
nan

>  <SMILES>  (419) 
CC1(C)CC(Oc2ccc(-c3ccc(-c4cn[nH]c4)cc3O)nn2)CC(C)(C)N1

>  <InChi Key>  (419) 
STWTUEAWRAIWJG-UHFFFAOYSA-N

$$$$
CHEMBL184238
     RDKit          2D

 25 27  0  0  0  0  0  0  0  0999 V2000
    3.7500   -1.2990    0.0000 N   0  0  0  0  0  0  0  0  0  0  0  0
    3.0000    0.0000    0.0000 C   0  0  0  0  0  0  0  0  0  0  0  0
    3.7500    1.2990    0.0000 O   0  0  0  0  0  0  0  0  0  0  0  0
    1.5000    0.0000    0.0000 C   0  0  0  0  0  0  0  0  0  0  0  0
    0.7500   -1.2990    0.0000 C   0  0  0  0  0  0  0  0  0  0  0  0
   -0.7500   -1.2990    0.0000 C   0  0  0  0  0  0  0  0  0  0  0  0
   -1.5000    0.0000    0.0000 C   0  0  0  0  0  0  0  0  0  0  0  0
   -0.7500    1.2990    0.0000 C   0  0  0  0  0  0  0  0  0  0  0  0
   -1.5000    2.5981    0.0000 C   0  0  0  0  0  0  0  0  0  0  0  0
   -0.7500    3.8971    0.0000 C   0  0  0  0  0  0  0  0  0  0  0  0
   -1.5000    5.1962    0.0000 C   0  0  0  0  0  0  0  0  0  0  0  0
   -3.0000    5.1962    0.0000 C   0  0  0  0  0  0  0  0  0  0  0  0
   -3.7500    3.8971    0.0000 C   0  0  0  0  0  0  0  0  0  0  0  0
   -5.2500    3.8971    0.0000 O   0  0  0  0  0  0  0  0  0  0  0  0
   -6.0000    5.1962    0.0000 C   0  0  0  0  0  0  0  0  0  0  0  0
   -5.2500    6.4952    0.0000 O   0  0  0  0  0  0  0  0  0  0  0  0
   -7.5000    5.1962    0.0000 N   0  0  0  0  0  0  0  0  0  0  0  0
   -8.2500    6.4952    0.0000 C   0  0  0  0  0  0  0  0  0  0  0  0
   -7.5000    7.7942    0.0000 C   0  0  0  0  0  0  0  0  0  0  0  0
   -8.2500    9.0933    0.0000 C   0  0  0  0  0  0  0  0  0  0  0  0
   -9.7500    9.0933    0.0000 C   0  0  0  0  0  0  0  0  0  0  0  0
  -10.5000    7.7942    0.0000 C   0  0  0  0  0  0  0  0  0  0  0  0
   -9.7500    6.4952    0.0000 C   0  0  0  0  0  0  0  0  0  0  0  0
   -3.0000    2.5981    0.0000 C   0  0  0  0  0  0  0  0  0  0  0  0
    0.7500    1.2990    0.0000 C   0  0  0  0  0  0  0  0  0  0  0  0
  1  2  1  0
  2  3  2  0
  2  4  1  0
  4  5  2  0
  5  6  1  0
  6  7  2  0
  7  8  1  0
  8  9  1  0
  9 10  2  0
 10 11  1  0
 11 12  2  0
 12 13  1  0
 13 14  1  0
 14 15  1  0
 15 16  2  0
 15 17  1  0
 17 18  1  0
 18 19  1  0
 19 20  1  0
 20 21  1  0
 21 22  1  0
 22 23  1  0
 13 24  2  0
  8 25  2  0
 25  4  1  0
 24  9  1  0
 23 18  1  0
M  END
>  <Synonyms>  (420) 
KDS-4103|ORG-231295|URB 597|URB-597|URB597

>  <Research Codes>  (420) 
KDS-4103|ORG-231295|URB 597

>  <Phase>  (420) 
1

>  <Applicants>  (420) 
nan

>  <USAN Stem>  (420) 
nan

>  <USAN Year>  (420) 
nan

>  <USAN Stem Definition>  (420) 
nan

>  <USAN Stem Substem>  (420) 
nan

>  <First Approval>  (420) 
nan

>  <ATC Codes>  (420) 
nan

>  <Level 4 ATC Codes>  (420) 
nan

>  <Level 3 ATC Codes>  (420) 
nan

>  <Level 2 ATC Codes>  (420) 
nan

>  <Level 1 ATC Codes>  (420) 
nan

>  <Indication Class>  (420) 
nan

>  <Patent>  (420) 
nan

>  <Drug Type>  (420) 
1:Synthetic Small Molecule

>  <Passes Rule of Five>  (420) 
True

>  <First In Class>  (420) 
False

>  <Chirality>  (420) 
Achiral Molecule

>  <Prodrug>  (420) 
False

>  <Oral>  (420) 
False

>  <Parenteral>  (420) 
False

>  <Topical>  (420) 
False

>  <Black Box>  (420) 
False

>  <Availability Type>  (420) 
Unknown

>  <Withdrawn Year>  (420) 
nan

>  <Withdrawn Reason>  (420) 
nan

>  <Withdrawn Country>  (420) 
nan

>  <Withdrawn Class>  (420) 
nan

>  <SMILES>  (420) 
NC(=O)c1cccc(-c2cccc(OC(=O)NC3CCCCC3)c2)c1

>  <InChi Key>  (420) 
ROFVXGGUISEHAM-UHFFFAOYSA-N

$$$$
CHEMBL38434
     RDKit          2D

 28 31  0  0  0  0  0  0  0  0999 V2000
   -1.5000   -5.1962    0.0000 C   0  0  0  0  0  0  0  0  0  0  0  0
   -0.7500   -3.8971    0.0000 C   0  0  0  0  0  0  0  0  0  0  0  0
    0.7500   -3.8971    0.0000 C   0  0  0  0  0  0  0  0  0  0  0  0
    1.5000   -5.1962    0.0000 C   0  0  0  0  0  0  0  0  0  0  0  0
    0.7500   -6.4952    0.0000 C   0  0  0  0  0  0  0  0  0  0  0  0
    1.5000   -7.7942    0.0000 C   0  0  0  0  0  0  0  0  0  0  0  0
    3.0000   -7.7942    0.0000 C   0  0  0  0  0  0  0  0  0  0  0  0
    3.7500   -9.0933    0.0000 C   0  0  0  0  0  0  0  0  0  0  0  0
    3.0000  -10.3923    0.0000 C   0  0  0  0  0  0  0  0  0  0  0  0
    3.7500  -11.6913    0.0000 C   0  0  0  0  0  0  0  0  0  0  0  0
    5.2500  -11.6913    0.0000 C   0  0  0  0  0  0  0  0  0  0  0  0
    6.0000  -10.3923    0.0000 C   0  0  0  0  0  0  0  0  0  0  0  0
    5.2500   -9.0933    0.0000 C   0  0  0  0  0  0  0  0  0  0  0  0
    6.0000   -7.7942    0.0000 F   0  0  0  0  0  0  0  0  0  0  0  0
    3.7500   -6.4952    0.0000 C   0  0  0  0  0  0  0  0  0  0  0  0
    3.0000   -5.1962    0.0000 C   0  0  0  0  0  0  0  0  0  0  0  0
    1.5000   -2.5981    0.0000 N   0  0  0  0  0  0  0  0  0  0  0  0
    0.7500   -1.2990    0.0000 C   0  0  0  0  0  0  0  0  0  0  0  0
    1.5000    0.0000    0.0000 C   0  0  0  0  0  0  0  0  0  0  0  0
    0.7500    1.2990    0.0000 C   0  0  0  0  0  0  0  0  0  0  0  0
   -0.7500    1.2990    0.0000 C   0  0  0  0  0  0  0  0  0  0  0  0
   -1.5000    2.5981    0.0000 F   0  0  0  0  0  0  0  0  0  0  0  0
   -1.5000    0.0000    0.0000 C   0  0  0  0  0  0  0  0  0  0  0  0
   -0.7500   -1.2990    0.0000 C   0  0  0  0  0  0  0  0  0  0  0  0
   -1.5000   -2.5981    0.0000 C   0  0  0  0  0  0  0  0  0  0  0  0
   -3.0000   -2.5981    0.0000 C   0  0  0  0  0  0  0  0  0  0  0  0
   -3.7500   -1.2990    0.0000 O   0  0  0  0  0  0  0  0  0  0  0  0
   -3.7500   -3.8971    0.0000 O   0  0  0  0  0  0  0  0  0  0  0  0
  1  2  1  0
  2  3  2  0
  3  4  1  0
  4  5  2  0
  5  6  1  0
  6  7  2  0
  7  8  1  0
  8  9  2  0
  9 10  1  0
 10 11  2  0
 11 12  1  0
 12 13  2  0
 13 14  1  0
  7 15  1  0
 15 16  2  0
  3 17  1  0
 17 18  2  0
 18 19  1  0
 19 20  2  0
 20 21  1  0
 21 22  1  0
 21 23  2  0
 23 24  1  0
 24 25  2  0
 25 26  1  0
 26 27  2  0
 26 28  1  0
 25  2  1  0
 16  4  1  0
 24 18  1  0
 13  8  1  0
M  END
>  <Synonyms>  (421) 
BREQUINAR

>  <Research Codes>  (421) 
nan

>  <Phase>  (421) 
1

>  <Applicants>  (421) 
nan

>  <USAN Stem>  (421) 
nan

>  <USAN Year>  (421) 
1987.0

>  <USAN Stem Definition>  (421) 
nan

>  <USAN Stem Substem>  (421) 
nan

>  <First Approval>  (421) 
nan

>  <ATC Codes>  (421) 
nan

>  <Level 4 ATC Codes>  (421) 
nan

>  <Level 3 ATC Codes>  (421) 
nan

>  <Level 2 ATC Codes>  (421) 
nan

>  <Level 1 ATC Codes>  (421) 
nan

>  <Indication Class>  (421) 
Antineoplastic

>  <Patent>  (421) 
nan

>  <Drug Type>  (421) 
1:Synthetic Small Molecule

>  <Passes Rule of Five>  (421) 
False

>  <First In Class>  (421) 
False

>  <Chirality>  (421) 
Achiral Molecule

>  <Prodrug>  (421) 
False

>  <Oral>  (421) 
False

>  <Parenteral>  (421) 
False

>  <Topical>  (421) 
False

>  <Black Box>  (421) 
False

>  <Availability Type>  (421) 
Unknown

>  <Withdrawn Year>  (421) 
nan

>  <Withdrawn Reason>  (421) 
nan

>  <Withdrawn Country>  (421) 
nan

>  <Withdrawn Class>  (421) 
nan

>  <SMILES>  (421) 
Cc1c(-c2ccc(-c3ccccc3F)cc2)nc2ccc(F)cc2c1C(=O)O

>  <InChi Key>  (421) 
PHEZJEYUWHETKO-UHFFFAOYSA-N

$$$$
CHEMBL4297275
     RDKit          2D

 17 18  0  0  0  0  0  0  0  0999 V2000
    3.0000    0.0000    0.0000 N   0  0  0  0  0  0  0  0  0  0  0  0
    1.5000    0.0000    0.0000 C   0  0  0  0  0  0  0  0  0  0  0  0
    0.7500   -1.2990    0.0000 N   0  0  0  0  0  0  0  0  0  0  0  0
   -0.7500   -1.2990    0.0000 C   0  0  0  0  0  0  0  0  0  0  0  0
   -1.5000   -2.5981    0.0000 O   0  0  0  0  0  0  0  0  0  0  0  0
   -1.5000    0.0000    0.0000 N   0  0  0  0  0  0  0  0  0  0  0  0
   -3.0000    0.0000    0.0000 C   0  0  0  0  0  0  0  0  0  0  0  0
   -3.8817   -1.2135    0.0000 C   0  0  0  0  0  0  0  0  0  0  0  0
   -5.3083   -0.7500    0.0000 C   0  0  0  0  0  0  0  0  0  0  0  0
   -6.5218   -1.6317    0.0000 O   0  0  0  0  0  0  0  0  0  0  0  0
   -5.3083    0.7500    0.0000 C   0  0  0  0  0  0  0  0  0  0  0  0
   -6.5218    1.6317    0.0000 C   0  0  0  0  0  0  0  0  0  0  0  0
   -6.3650    3.1235    0.0000 O   0  0  0  0  0  0  0  0  0  0  0  0
   -3.8817    1.2135    0.0000 O   0  0  0  0  0  0  0  0  0  0  0  0
   -0.7500    1.2990    0.0000 C   0  0  0  0  0  0  0  0  0  0  0  0
    0.7500    1.2990    0.0000 C   0  0  0  0  0  0  0  0  0  0  0  0
    1.5000    2.5981    0.0000 Cl  0  0  0  0  0  0  0  0  0  0  0  0
  1  2  2  0
  2  3  1  0
  3  4  1  0
  4  5  2  0
  4  6  1  0
  7  6  1  1
  7  8  1  0
  8  9  1  0
  9 10  1  6
  9 11  1  0
 11 12  1  1
 12 13  1  0
 11 14  1  0
  6 15  1  0
 15 16  2  0
 16 17  1  0
 16  2  1  0
 14  7  1  0
M  END
>  <Synonyms>  (422) 
CYTOCHLOR|NSC-371331

>  <Research Codes>  (422) 
NSC-371331

>  <Phase>  (422) 
1

>  <Applicants>  (422) 
nan

>  <USAN Stem>  (422) 
nan

>  <USAN Year>  (422) 
nan

>  <USAN Stem Definition>  (422) 
nan

>  <USAN Stem Substem>  (422) 
nan

>  <First Approval>  (422) 
nan

>  <ATC Codes>  (422) 
nan

>  <Level 4 ATC Codes>  (422) 
nan

>  <Level 3 ATC Codes>  (422) 
nan

>  <Level 2 ATC Codes>  (422) 
nan

>  <Level 1 ATC Codes>  (422) 
nan

>  <Indication Class>  (422) 
nan

>  <Patent>  (422) 
nan

>  <Drug Type>  (422) 
7:Natural Product-derived

>  <Passes Rule of Five>  (422) 
True

>  <First In Class>  (422) 
False

>  <Chirality>  (422) 
Single Stereoisomer

>  <Prodrug>  (422) 
False

>  <Oral>  (422) 
False

>  <Parenteral>  (422) 
False

>  <Topical>  (422) 
False

>  <Black Box>  (422) 
False

>  <Availability Type>  (422) 
Unknown

>  <Withdrawn Year>  (422) 
nan

>  <Withdrawn Reason>  (422) 
nan

>  <Withdrawn Country>  (422) 
nan

>  <Withdrawn Class>  (422) 
nan

>  <SMILES>  (422) 
Nc1nc(=O)n([C@H]2C[C@H](O)[C@@H](CO)O2)cc1Cl

>  <InChi Key>  (422) 
NGGRGTWYSXYVDK-RRKCRQDMSA-N

$$$$
CHEMBL1630563
     RDKit          2D

 31 34  0  0  0  0  0  0  0  0999 V2000
    1.2990   -5.8573    0.0000 O   0  0  0  0  0  0  0  0  0  0  0  0
    0.0000   -5.1073    0.0000 N   0  0  0  0  0  4  0  0  0  0  0  0
   -1.2990   -5.8573    0.0000 O   0  0  0  0  0  1  0  0  0  0  0  0
   -0.0000   -3.6073    0.0000 C   0  0  0  0  0  0  0  0  0  0  0  0
   -1.2135   -2.7256    0.0000 C   0  0  0  0  0  0  0  0  0  0  0  0
   -0.7500   -1.2990    0.0000 N   0  0  0  0  0  0  0  0  0  0  0  0
    0.7500   -1.2990    0.0000 C   0  0  0  0  0  0  0  0  0  0  0  0
    1.2135   -2.7256    0.0000 N   0  0  0  0  0  0  0  0  0  0  0  0
    1.5000    0.0000    0.0000 O   0  0  0  0  0  0  0  0  0  0  0  0
    0.7500    1.2990    0.0000 C   0  0  0  0  0  0  0  0  0  0  0  0
   -0.7500    1.2990    0.0000 C   0  0  0  0  0  0  0  0  0  0  0  0
   -1.5000    2.5981    0.0000 O   0  0  0  0  0  0  0  0  0  0  0  0
   -0.7500    3.8971    0.0000 C   0  0  0  0  0  0  0  0  0  0  0  0
   -1.5000    5.1962    0.0000 C   0  0  0  0  0  0  0  0  0  0  0  0
   -0.7500    6.4952    0.0000 C   0  0  0  0  0  0  0  0  0  0  0  0
   -1.5000    7.7942    0.0000 C   0  0  0  0  0  0  0  0  0  0  0  0
   -3.0000    7.7942    0.0000 C   0  0  0  0  0  0  0  0  0  0  0  0
   -3.7500    9.0933    0.0000 C   0  0  0  0  0  0  0  0  0  0  0  0
   -3.0000   10.3923    0.0000 C   0  0  0  0  0  0  0  0  0  0  0  0
   -3.7500   11.6913    0.0000 C   0  0  0  0  0  0  0  0  0  0  0  0
   -5.2500   11.6913    0.0000 C   0  0  0  0  0  0  0  0  0  0  0  0
   -6.0000   12.9904    0.0000 O   0  0  0  0  0  0  0  0  0  0  0  0
   -5.2500   14.2894    0.0000 C   0  0  0  0  0  0  0  0  0  0  0  0
   -4.5000   15.5885    0.0000 F   0  0  0  0  0  0  0  0  0  0  0  0
   -6.5490   15.0394    0.0000 F   0  0  0  0  0  0  0  0  0  0  0  0
   -3.9510   13.5394    0.0000 F   0  0  0  0  0  0  0  0  0  0  0  0
   -6.0000   10.3923    0.0000 C   0  0  0  0  0  0  0  0  0  0  0  0
   -5.2500    9.0933    0.0000 C   0  0  0  0  0  0  0  0  0  0  0  0
   -3.7500    6.4952    0.0000 N   0  0  0  0  0  0  0  0  0  0  0  0
   -3.0000    5.1962    0.0000 C   0  0  0  0  0  0  0  0  0  0  0  0
   -1.5000    0.0000    0.0000 C   0  0  0  0  0  0  0  0  0  0  0  0
  1  2  2  0
  2  3  1  0
  2  4  1  0
  4  5  2  0
  5  6  1  0
  6  7  1  0
  7  8  2  0
  7  9  1  0
  9 10  1  0
 10 11  1  0
 11 12  1  6
 12 13  1  0
 13 14  1  0
 14 15  2  0
 15 16  1  0
 16 17  2  0
 17 18  1  0
 18 19  2  0
 19 20  1  0
 20 21  2  0
 21 22  1  0
 22 23  1  0
 23 24  1  0
 23 25  1  0
 23 26  1  0
 21 27  1  0
 27 28  2  0
 17 29  1  0
 29 30  2  0
 11 31  1  0
  8  4  1  0
 30 14  1  0
 31  6  1  0
 28 18  1  0
M  CHG  2   2   1   3  -1
M  END
>  <Synonyms>  (423) 
TBA 354|TBA-354

>  <Research Codes>  (423) 
TBA 354

>  <Phase>  (423) 
1

>  <Applicants>  (423) 
nan

>  <USAN Stem>  (423) 
nan

>  <USAN Year>  (423) 
nan

>  <USAN Stem Definition>  (423) 
nan

>  <USAN Stem Substem>  (423) 
nan

>  <First Approval>  (423) 
nan

>  <ATC Codes>  (423) 
nan

>  <Level 4 ATC Codes>  (423) 
nan

>  <Level 3 ATC Codes>  (423) 
nan

>  <Level 2 ATC Codes>  (423) 
nan

>  <Level 1 ATC Codes>  (423) 
nan

>  <Indication Class>  (423) 
nan

>  <Patent>  (423) 
nan

>  <Drug Type>  (423) 
1:Synthetic Small Molecule

>  <Passes Rule of Five>  (423) 
True

>  <First In Class>  (423) 
False

>  <Chirality>  (423) 
Single Stereoisomer

>  <Prodrug>  (423) 
False

>  <Oral>  (423) 
False

>  <Parenteral>  (423) 
False

>  <Topical>  (423) 
False

>  <Black Box>  (423) 
False

>  <Availability Type>  (423) 
Unknown

>  <Withdrawn Year>  (423) 
nan

>  <Withdrawn Reason>  (423) 
nan

>  <Withdrawn Country>  (423) 
nan

>  <Withdrawn Class>  (423) 
nan

>  <SMILES>  (423) 
O=[N+]([O-])c1cn2c(n1)OC[C@@H](OCc1ccc(-c3ccc(OC(F)(F)F)cc3)nc1)C2

>  <InChi Key>  (423) 
ZXSGSFMORAILEY-HNNXBMFYSA-N

$$$$
CHEMBL291747
     RDKit          2D

  8  7  0  0  0  0  0  0  0  0999 V2000
    0.0000    0.0000    0.0000 C   0  0  0  0  0  0  0  0  0  0  0  0
    1.2990    0.7500    0.0000 C   0  0  0  0  0  0  0  0  0  0  0  0
    1.2990    2.2500    0.0000 O   0  0  0  0  0  0  0  0  0  0  0  0
    2.5981   -0.0000    0.0000 C   0  0  0  0  0  0  0  0  0  0  0  0
    2.5981   -1.5000    0.0000 N   0  0  0  0  0  0  0  0  0  0  0  0
    3.8971    0.7500    0.0000 C   0  0  0  0  0  0  0  0  0  0  0  0
    5.1962   -0.0000    0.0000 O   0  0  0  0  0  0  0  0  0  0  0  0
    3.8971    2.2500    0.0000 O   0  0  0  0  0  0  0  0  0  0  0  0
  1  2  1  0
  2  3  2  0
  2  4  1  0
  4  5  1  0
  4  6  1  0
  6  7  1  0
  6  8  1  0
M  END
>  <Synonyms>  (424) 
L-THREONINE|THREONINE|Threonine

>  <Research Codes>  (424) 
nan

>  <Phase>  (424) 
1

>  <Applicants>  (424) 
nan

>  <USAN Stem>  (424) 
nan

>  <USAN Year>  (424) 
1979.0

>  <USAN Stem Definition>  (424) 
nan

>  <USAN Stem Substem>  (424) 
nan

>  <First Approval>  (424) 
nan

>  <ATC Codes>  (424) 
nan

>  <Level 4 ATC Codes>  (424) 
nan

>  <Level 3 ATC Codes>  (424) 
nan

>  <Level 2 ATC Codes>  (424) 
nan

>  <Level 1 ATC Codes>  (424) 
nan

>  <Indication Class>  (424) 
Amino Acid

>  <Patent>  (424) 
nan

>  <Drug Type>  (424) 
1:Synthetic Small Molecule

>  <Passes Rule of Five>  (424) 
True

>  <First In Class>  (424) 
False

>  <Chirality>  (424) 
Single Stereoisomer

>  <Prodrug>  (424) 
False

>  <Oral>  (424) 
False

>  <Parenteral>  (424) 
False

>  <Topical>  (424) 
False

>  <Black Box>  (424) 
False

>  <Availability Type>  (424) 
Unknown

>  <Withdrawn Year>  (424) 
nan

>  <Withdrawn Reason>  (424) 
nan

>  <Withdrawn Country>  (424) 
nan

>  <Withdrawn Class>  (424) 
nan

>  <SMILES>  (424) 
C[C@@H](O)[C@H](N)C(=O)O

>  <InChi Key>  (424) 
FVIRKMTVCDDJNM-UHFFFAOYSA-N

$$$$
CHEMBL3348923
     RDKit          2D

 32 34  0  0  0  0  0  0  0  0999 V2000
    0.7500   -6.4952    0.0000 C   0  0  0  0  0  0  0  0  0  0  0  0
    1.5000   -5.1962    0.0000 C   0  0  0  0  0  0  0  0  0  0  0  0
    0.7500   -3.8971    0.0000 N   0  0  0  0  0  0  0  0  0  0  0  0
    1.5000   -2.5981    0.0000 C   0  0  0  0  0  0  0  0  0  0  0  0
    3.0000   -2.5981    0.0000 O   0  0  0  0  0  0  0  0  0  0  0  0
    0.7500   -1.2990    0.0000 C   0  0  0  0  0  0  0  0  0  0  0  0
    1.5000    0.0000    0.0000 N   0  0  0  0  0  0  0  0  0  0  0  0
    0.7500    1.2990    0.0000 C   0  0  0  0  0  0  0  0  0  0  0  0
   -0.7500    1.2990    0.0000 N   0  0  0  0  0  0  0  0  0  0  0  0
   -1.5000    0.0000    0.0000 C   0  0  0  0  0  0  0  0  0  0  0  0
   -3.0000    0.0000    0.0000 N   0  0  0  0  0  0  0  0  0  0  0  0
   -0.7500   -1.2990    0.0000 C   0  0  0  0  0  0  0  0  0  0  0  0
   -1.5000   -2.5981    0.0000 Cl  0  0  0  0  0  0  0  0  0  0  0  0
    3.0000   -5.1962    0.0000 C   0  0  0  0  0  0  0  0  0  0  0  0
    3.8817   -3.9826    0.0000 N   0  0  0  0  0  0  0  0  0  0  0  0
    5.3083   -4.4462    0.0000 C   0  0  0  0  0  0  0  0  0  0  0  0
    5.3083   -5.9462    0.0000 C   0  0  0  0  0  0  0  0  0  0  0  0
    6.5218   -6.8278    0.0000 C   0  0  0  0  0  0  0  0  0  0  0  0
    7.8921   -6.2177    0.0000 O   0  0  0  0  0  0  0  0  0  0  0  0
    6.3650   -8.3196    0.0000 N   0  0  0  0  0  0  0  0  0  0  0  0
    7.5785   -9.2013    0.0000 C   0  0  0  0  0  0  0  0  0  0  0  0
    7.4217  -10.6931    0.0000 C   0  0  0  0  0  0  0  0  0  0  0  0
    8.6353  -11.5748    0.0000 C   0  0  0  0  0  0  0  0  0  0  0  0
    8.4785  -13.0665    0.0000 C   0  0  0  0  0  0  0  0  0  0  0  0
    8.3217  -14.5583    0.0000 F   0  0  0  0  0  0  0  0  0  0  0  0
    6.9867  -12.9097    0.0000 F   0  0  0  0  0  0  0  0  0  0  0  0
    9.9702  -13.2233    0.0000 F   0  0  0  0  0  0  0  0  0  0  0  0
   10.0056  -10.9646    0.0000 C   0  0  0  0  0  0  0  0  0  0  0  0
   11.2191  -11.8463    0.0000 Cl  0  0  0  0  0  0  0  0  0  0  0  0
   10.1624   -9.4729    0.0000 C   0  0  0  0  0  0  0  0  0  0  0  0
    8.9488   -8.5912    0.0000 N   0  0  0  0  0  0  0  0  0  0  0  0
    3.8817   -6.4097    0.0000 S   0  0  0  0  0  0  0  0  0  0  0  0
  1  2  1  0
  2  3  1  0
  3  4  1  0
  4  5  2  0
  4  6  1  0
  6  7  1  0
  7  8  1  0
  8  9  2  0
  9 10  1  0
 10 11  2  0
 10 12  1  0
 12 13  1  0
  2 14  1  0
 14 15  2  0
 15 16  1  0
 16 17  2  0
 17 18  1  0
 18 19  2  0
 18 20  1  0
 20 21  2  3
 21 22  1  0
 22 23  2  0
 23 24  1  0
 24 25  1  0
 24 26  1  0
 24 27  1  0
 23 28  1  0
 28 29  1  0
 28 30  2  0
 30 31  1  0
 17 32  1  0
 12  6  2  0
 32 14  1  0
 31 21  1  0
M  END
>  <Synonyms>  (425) 
BIIB024|MLN-2480|TAK 580

>  <Research Codes>  (425) 
BIIB024|MLN-2480

>  <Phase>  (425) 
1

>  <Applicants>  (425) 
nan

>  <USAN Stem>  (425) 
nan

>  <USAN Year>  (425) 
nan

>  <USAN Stem Definition>  (425) 
nan

>  <USAN Stem Substem>  (425) 
nan

>  <First Approval>  (425) 
nan

>  <ATC Codes>  (425) 
nan

>  <Level 4 ATC Codes>  (425) 
nan

>  <Level 3 ATC Codes>  (425) 
nan

>  <Level 2 ATC Codes>  (425) 
nan

>  <Level 1 ATC Codes>  (425) 
nan

>  <Indication Class>  (425) 
nan

>  <Patent>  (425) 
nan

>  <Drug Type>  (425) 
1:Synthetic Small Molecule

>  <Passes Rule of Five>  (425) 
False

>  <First In Class>  (425) 
False

>  <Chirality>  (425) 
Single Stereoisomer

>  <Prodrug>  (425) 
False

>  <Oral>  (425) 
False

>  <Parenteral>  (425) 
False

>  <Topical>  (425) 
False

>  <Black Box>  (425) 
False

>  <Availability Type>  (425) 
Unknown

>  <Withdrawn Year>  (425) 
nan

>  <Withdrawn Reason>  (425) 
nan

>  <Withdrawn Country>  (425) 
nan

>  <Withdrawn Class>  (425) 
nan

>  <SMILES>  (425) 
C[C@@H](NC(=O)c1ncnc(N)c1Cl)c1ncc(C(=O)Nc2cc(C(F)(F)F)c(Cl)cn2)s1

>  <InChi Key>  (425) 
VWMJHAFYPMOMGF-UHFFFAOYSA-N

$$$$
CHEMBL2141712
     RDKit          2D

 30 33  0  0  0  0  0  0  0  0999 V2000
   -9.7500  -11.6913    0.0000 C   0  0  0  0  0  0  0  0  0  0  0  0
   -8.2500  -11.6913    0.0000 O   0  0  0  0  0  0  0  0  0  0  0  0
   -7.5000  -10.3923    0.0000 C   0  0  0  0  0  0  0  0  0  0  0  0
   -8.2500   -9.0933    0.0000 C   0  0  0  0  0  0  0  0  0  0  0  0
   -7.5000   -7.7942    0.0000 C   0  0  0  0  0  0  0  0  0  0  0  0
   -6.0000   -7.7942    0.0000 C   0  0  0  0  0  0  0  0  0  0  0  0
   -5.2500   -6.4952    0.0000 C   0  0  0  0  0  0  0  0  0  0  0  0
   -3.7500   -6.4952    0.0000 O   0  0  0  0  0  0  0  0  0  0  0  0
   -3.0000   -5.1962    0.0000 C   0  0  0  0  0  0  0  0  0  0  0  0
   -1.5000   -5.1962    0.0000 C   0  0  0  0  0  0  0  0  0  0  0  0
   -0.7500   -3.8971    0.0000 C   0  0  0  0  0  0  0  0  0  0  0  0
    0.7500   -3.8971    0.0000 O   0  0  0  0  0  0  0  0  0  0  0  0
    1.5000   -2.5981    0.0000 C   0  0  0  0  0  0  0  0  0  0  0  0
    3.0000   -2.5981    0.0000 O   0  0  0  0  0  0  0  0  0  0  0  0
    0.7500   -1.2990    0.0000 C   0  0  0  0  0  0  0  0  0  0  0  0
    1.5000    0.0000    0.0000 C   0  0  0  0  0  0  0  0  0  0  0  0
    0.7500    1.2990    0.0000 C   0  0  0  0  0  0  0  0  0  0  0  0
    1.5000    2.5981    0.0000 C   0  0  0  0  0  0  0  0  0  0  0  0
    3.0000    2.5981    0.0000 C   0  0  0  0  0  0  0  0  0  0  0  0
    0.7500    3.8971    0.0000 O   0  0  0  0  0  0  0  0  0  0  0  0
   -0.7500    1.2990    0.0000 C   0  0  0  0  0  0  0  0  0  0  0  0
   -1.5000    0.0000    0.0000 C   0  0  0  0  0  0  0  0  0  0  0  0
   -0.7500   -1.2990    0.0000 C   0  0  0  0  0  0  0  0  0  0  0  0
   -1.5000   -2.5981    0.0000 C   0  0  0  0  0  0  0  0  0  0  0  0
   -3.0000   -2.5981    0.0000 C   0  0  0  0  0  0  0  0  0  0  0  0
   -3.7500   -3.8971    0.0000 C   0  0  0  0  0  0  0  0  0  0  0  0
   -5.2500   -3.8971    0.0000 O   0  0  0  0  0  0  0  0  0  0  0  0
   -6.0000   -2.5981    0.0000 C   0  0  0  0  0  0  0  0  0  0  0  0
   -5.2500   -9.0933    0.0000 C   0  0  0  0  0  0  0  0  0  0  0  0
   -6.0000  -10.3923    0.0000 C   0  0  0  0  0  0  0  0  0  0  0  0
  1  2  1  0
  2  3  1  0
  3  4  2  0
  4  5  1  0
  5  6  2  0
  6  7  1  0
  7  8  1  0
  8  9  1  0
  9 10  2  0
 10 11  1  0
 11 12  1  0
 12 13  1  0
 13 14  2  0
 13 15  1  0
 15 16  2  0
 16 17  1  0
 17 18  1  0
 18 19  1  0
 18 20  1  0
 17 21  2  0
 21 22  1  0
 22 23  2  0
 23 24  1  0
 24 25  1  0
 25 26  2  0
 26 27  1  0
 27 28  1  0
  6 29  1  0
 29 30  2  0
 30  3  1  0
 26  9  1  0
 24 11  2  0
 23 15  1  0
M  END
>  <Synonyms>  (426) 
P-529|P529|PALOMID-529|Palomid-529|SG 00529|SG-00529

>  <Research Codes>  (426) 
P-529|P529|Palomid-529|SG 00529|SG-00529

>  <Phase>  (426) 
1

>  <Applicants>  (426) 
nan

>  <USAN Stem>  (426) 
nan

>  <USAN Year>  (426) 
nan

>  <USAN Stem Definition>  (426) 
nan

>  <USAN Stem Substem>  (426) 
nan

>  <First Approval>  (426) 
nan

>  <ATC Codes>  (426) 
nan

>  <Level 4 ATC Codes>  (426) 
nan

>  <Level 3 ATC Codes>  (426) 
nan

>  <Level 2 ATC Codes>  (426) 
nan

>  <Level 1 ATC Codes>  (426) 
nan

>  <Indication Class>  (426) 
nan

>  <Patent>  (426) 
nan

>  <Drug Type>  (426) 
1:Synthetic Small Molecule

>  <Passes Rule of Five>  (426) 
True

>  <First In Class>  (426) 
False

>  <Chirality>  (426) 
Racemic Mixture

>  <Prodrug>  (426) 
False

>  <Oral>  (426) 
False

>  <Parenteral>  (426) 
False

>  <Topical>  (426) 
False

>  <Black Box>  (426) 
False

>  <Availability Type>  (426) 
Unknown

>  <Withdrawn Year>  (426) 
nan

>  <Withdrawn Reason>  (426) 
nan

>  <Withdrawn Country>  (426) 
nan

>  <Withdrawn Class>  (426) 
nan

>  <SMILES>  (426) 
COc1ccc(COc2cc3oc(=O)c4cc(C(C)O)ccc4c3cc2OC)cc1

>  <InChi Key>  (426) 
YEAHTLOYHVWAKW-UHFFFAOYSA-N

$$$$
CHEMBL1939499
     RDKit          2D

 30 34  0  0  0  0  0  0  0  0999 V2000
   -0.5877    9.0898    0.0000 N   0  0  0  0  0  0  0  0  0  0  0  0
    0.5271    8.0861    0.0000 C   0  0  0  0  0  0  0  0  0  0  0  0
    1.6418    7.0824    0.0000 C   0  0  0  0  0  0  0  0  0  0  0  0
    3.0684    7.5459    0.0000 C   0  0  0  0  0  0  0  0  0  0  0  0
    4.1831    6.5422    0.0000 C   0  0  0  0  0  0  0  0  0  0  0  0
    5.6097    7.0058    0.0000 Cl  0  0  0  0  0  0  0  0  0  0  0  0
    3.8712    5.0750    0.0000 C   0  0  0  0  0  0  0  0  0  0  0  0
    2.4446    4.6115    0.0000 C   0  0  0  0  0  0  0  0  0  0  0  0
    2.1328    3.1443    0.0000 O   0  0  0  0  0  0  0  0  0  0  0  0
    0.7062    2.6807    0.0000 C   0  0  0  0  0  0  0  0  0  0  0  0
   -0.4086    3.6844    0.0000 C   0  0  0  0  0  0  0  0  0  0  0  0
   -0.0967    5.1517    0.0000 Cl  0  0  0  0  0  0  0  0  0  0  0  0
   -1.8351    3.2209    0.0000 C   0  0  0  0  0  0  0  0  0  0  0  0
   -2.1470    1.7537    0.0000 C   0  0  0  0  0  0  0  0  0  0  0  0
   -1.0323    0.7500    0.0000 C   0  0  0  0  0  0  0  0  0  0  0  0
    0.3943    1.2135    0.0000 C   0  0  0  0  0  0  0  0  0  0  0  0
    1.2760    0.0000    0.0000 C   0  0  0  0  0  0  0  0  0  0  0  0
    0.3943   -1.2135    0.0000 N   0  0  0  0  0  0  0  0  0  0  0  0
   -1.0323   -0.7500    0.0000 N   0  0  0  0  0  0  0  0  0  0  0  0
   -2.2458   -1.6317    0.0000 C   0  0  0  0  0  0  0  0  0  0  0  0
   -2.0890   -3.1235    0.0000 C   0  0  0  0  0  0  0  0  0  0  0  0
   -0.7900   -3.8735    0.0000 N   0  0  0  0  0  0  0  0  0  0  0  0
   -1.1018   -5.3407    0.0000 N   0  0  0  0  0  0  0  0  0  0  0  0
   -2.5936   -5.4975    0.0000 C   0  0  0  0  0  0  0  0  0  0  0  0
   -3.4753   -6.7110    0.0000 N   0  0  0  0  0  0  0  0  0  0  0  0
   -4.9671   -6.5542    0.0000 C   0  0  0  0  0  0  0  0  0  0  0  0
   -5.5772   -5.1839    0.0000 C   0  0  0  0  0  0  0  0  0  0  0  0
   -4.6955   -3.9704    0.0000 C   0  0  0  0  0  0  0  0  0  0  0  0
   -3.2037   -4.1272    0.0000 C   0  0  0  0  0  0  0  0  0  0  0  0
    1.3299    5.6152    0.0000 C   0  0  0  0  0  0  0  0  0  0  0  0
  1  2  3  0
  2  3  1  0
  3  4  2  0
  4  5  1  0
  5  6  1  0
  5  7  2  0
  7  8  1  0
  8  9  1  0
  9 10  1  0
 10 11  2  0
 11 12  1  0
 11 13  1  0
 13 14  2  0
 14 15  1  0
 15 16  2  0
 16 17  1  0
 17 18  2  0
 18 19  1  0
 19 20  1  0
 20 21  1  0
 21 22  1  0
 22 23  1  0
 23 24  2  0
 24 25  1  0
 25 26  2  0
 26 27  1  0
 27 28  2  0
 28 29  1  0
  8 30  2  0
 30  3  1  0
 16 10  1  0
 29 21  2  0
 19 15  1  0
 29 24  1  0
M  END
>  <Synonyms>  (427) 
MK-6186|MK6186

>  <Research Codes>  (427) 
MK-6186|MK6186

>  <Phase>  (427) 
1

>  <Applicants>  (427) 
nan

>  <USAN Stem>  (427) 
nan

>  <USAN Year>  (427) 
nan

>  <USAN Stem Definition>  (427) 
nan

>  <USAN Stem Substem>  (427) 
nan

>  <First Approval>  (427) 
nan

>  <ATC Codes>  (427) 
nan

>  <Level 4 ATC Codes>  (427) 
nan

>  <Level 3 ATC Codes>  (427) 
nan

>  <Level 2 ATC Codes>  (427) 
nan

>  <Level 1 ATC Codes>  (427) 
nan

>  <Indication Class>  (427) 
nan

>  <Patent>  (427) 
nan

>  <Drug Type>  (427) 
1:Synthetic Small Molecule

>  <Passes Rule of Five>  (427) 
False

>  <First In Class>  (427) 
False

>  <Chirality>  (427) 
Achiral Molecule

>  <Prodrug>  (427) 
False

>  <Oral>  (427) 
False

>  <Parenteral>  (427) 
False

>  <Topical>  (427) 
False

>  <Black Box>  (427) 
False

>  <Availability Type>  (427) 
Unknown

>  <Withdrawn Year>  (427) 
nan

>  <Withdrawn Reason>  (427) 
nan

>  <Withdrawn Country>  (427) 
nan

>  <Withdrawn Class>  (427) 
nan

>  <SMILES>  (427) 
N#Cc1cc(Cl)cc(Oc2c(Cl)ccc3c2cnn3Cc2n[nH]c3ncccc23)c1

>  <InChi Key>  (427) 
FZBAOOQVQXATRL-UHFFFAOYSA-N

$$$$
CHEMBL3125702
     RDKit          2D

 37 39  0  0  0  0  0  0  0  0999 V2000
    5.2500   -1.2990    0.0000 C   0  0  0  0  0  0  0  0  0  0  0  0
    3.7500   -1.2990    0.0000 C   0  0  0  0  0  0  0  0  0  0  0  0
    3.0000   -2.5981    0.0000 C   0  0  0  0  0  0  0  0  0  0  0  0
    3.0000    0.0000    0.0000 C   0  0  0  0  0  0  0  0  0  0  0  0
    3.7500    1.2990    0.0000 C   0  0  0  0  0  0  0  0  0  0  0  0
    5.2500    1.2990    0.0000 S   0  0  0  0  0  0  0  0  0  0  0  0
    5.2500    2.7990    0.0000 O   0  0  0  0  0  0  0  0  0  0  0  0
    5.2500   -0.2010    0.0000 O   0  0  0  0  0  0  0  0  0  0  0  0
    6.7500    1.2990    0.0000 C   0  0  0  0  0  0  0  0  0  0  0  0
    7.5000    0.0000    0.0000 C   0  0  0  0  0  0  0  0  0  0  0  0
    7.5000    2.5981    0.0000 C   0  0  0  0  0  0  0  0  0  0  0  0
    1.5000    0.0000    0.0000 N   0  0  0  0  0  0  0  0  0  0  0  0
    0.7500   -1.2990    0.0000 C   0  0  0  0  0  0  0  0  0  0  0  0
    1.5000   -2.5981    0.0000 O   0  0  0  0  0  0  0  0  0  0  0  0
   -0.7500   -1.2990    0.0000 C   0  0  0  0  0  0  0  0  0  0  0  0
   -0.4895   -2.7762    0.0000 C   0  0  0  0  0  0  0  0  0  0  0  0
   -2.1595   -1.8121    0.0000 C   0  0  0  0  0  0  0  0  0  0  0  0
   -3.3086   -0.8479    0.0000 C   0  0  0  0  0  0  0  0  0  0  0  0
   -3.0481    0.6293    0.0000 O   0  0  0  0  0  0  0  0  0  0  0  0
   -4.7181   -1.3609    0.0000 O   0  0  0  0  0  0  0  0  0  0  0  0
   -1.5000    0.0000    0.0000 C   0  0  0  0  0  0  0  0  0  0  0  0
   -0.7500    1.2990    0.0000 C   0  0  0  0  0  0  0  0  0  0  0  0
   -1.5000    2.5981    0.0000 C   0  0  0  0  0  0  0  0  0  0  0  0
   -0.7500    3.8971    0.0000 C   0  0  0  0  0  0  0  0  0  0  0  0
   -1.5000    5.1962    0.0000 C   0  0  0  0  0  0  0  0  0  0  0  0
   -3.0000    5.1962    0.0000 C   0  0  0  0  0  0  0  0  0  0  0  0
   -3.7500    3.8971    0.0000 C   0  0  0  0  0  0  0  0  0  0  0  0
   -5.2500    3.8971    0.0000 Cl  0  0  0  0  0  0  0  0  0  0  0  0
   -3.0000    2.5981    0.0000 C   0  0  0  0  0  0  0  0  0  0  0  0
    0.7500    1.2990    0.0000 C   0  0  0  0  0  0  0  0  0  0  0  0
    1.5000    2.5981    0.0000 C   0  0  0  0  0  0  0  0  0  0  0  0
    3.0000    2.5981    0.0000 C   0  0  0  0  0  0  0  0  0  0  0  0
    3.7500    3.8971    0.0000 C   0  0  0  0  0  0  0  0  0  0  0  0
    3.0000    5.1962    0.0000 C   0  0  0  0  0  0  0  0  0  0  0  0
    3.7500    6.4952    0.0000 Cl  0  0  0  0  0  0  0  0  0  0  0  0
    1.5000    5.1962    0.0000 C   0  0  0  0  0  0  0  0  0  0  0  0
    0.7500    3.8971    0.0000 C   0  0  0  0  0  0  0  0  0  0  0  0
  1  2  1  0
  2  3  1  0
  2  4  1  0
  4  5  1  6
  5  6  1  0
  6  7  2  0
  6  8  2  0
  6  9  1  0
  9 10  1  0
  9 11  1  0
  4 12  1  0
 12 13  1  0
 13 14  2  0
 13 15  1  0
 15 16  1  6
 15 17  1  0
 17 18  1  0
 18 19  2  0
 18 20  1  0
 15 21  1  0
 21 22  1  0
 22 23  1  6
 23 24  2  0
 24 25  1  0
 25 26  2  0
 26 27  1  0
 27 28  1  0
 27 29  2  0
 22 30  1  0
 30 31  1  1
 31 32  2  0
 32 33  1  0
 33 34  2  0
 34 35  1  0
 34 36  1  0
 36 37  2  0
 30 12  1  0
 37 31  1  0
 29 23  1  0
M  END
>  <Synonyms>  (428) 
AMG-232|MDM2 INHIBITOR AMG-232

>  <Research Codes>  (428) 
AMG-232

>  <Phase>  (428) 
1

>  <Applicants>  (428) 
nan

>  <USAN Stem>  (428) 
nan

>  <USAN Year>  (428) 
nan

>  <USAN Stem Definition>  (428) 
nan

>  <USAN Stem Substem>  (428) 
nan

>  <First Approval>  (428) 
nan

>  <ATC Codes>  (428) 
nan

>  <Level 4 ATC Codes>  (428) 
nan

>  <Level 3 ATC Codes>  (428) 
nan

>  <Level 2 ATC Codes>  (428) 
nan

>  <Level 1 ATC Codes>  (428) 
nan

>  <Indication Class>  (428) 
nan

>  <Patent>  (428) 
nan

>  <Drug Type>  (428) 
1:Synthetic Small Molecule

>  <Passes Rule of Five>  (428) 
False

>  <First In Class>  (428) 
False

>  <Chirality>  (428) 
Single Stereoisomer

>  <Prodrug>  (428) 
False

>  <Oral>  (428) 
False

>  <Parenteral>  (428) 
False

>  <Topical>  (428) 
False

>  <Black Box>  (428) 
False

>  <Availability Type>  (428) 
Unknown

>  <Withdrawn Year>  (428) 
nan

>  <Withdrawn Reason>  (428) 
nan

>  <Withdrawn Country>  (428) 
nan

>  <Withdrawn Class>  (428) 
nan

>  <SMILES>  (428) 
CC(C)[C@@H](CS(=O)(=O)C(C)C)N1C(=O)[C@@](C)(CC(=O)O)C[C@H](c2cccc(Cl)c2)[C@H]1c1ccc(Cl)cc1

>  <InChi Key>  (428) 
DRLCSJFKKILATL-YWCVFVGNSA-N

$$$$
CHEMBL4297433
     RDKit          2D

  5  4  0  0  0  0  0  0  0  0999 V2000
    0.0000    0.0000    0.0000 C   0  0  0  0  0  0  0  0  0  0  0  0
    1.2990    0.7500    0.0000 S   0  0  0  0  0  0  0  0  0  0  0  0
    2.5981    1.5000    0.0000 O   0  0  0  0  0  0  0  0  0  0  0  0
    2.0490   -0.5490    0.0000 O   0  0  0  0  0  0  0  0  0  0  0  0
    0.5490    2.0490    0.0000 F   0  0  0  0  0  0  0  0  0  0  0  0
  1  2  1  0
  2  3  2  0
  2  4  2  0
  2  5  1  0
M  END
>  <Synonyms>  (429) 
METHANESULFONYL FLUORIDE|SNX-001

>  <Research Codes>  (429) 
SNX-001

>  <Phase>  (429) 
1

>  <Applicants>  (429) 
nan

>  <USAN Stem>  (429) 
nan

>  <USAN Year>  (429) 
nan

>  <USAN Stem Definition>  (429) 
nan

>  <USAN Stem Substem>  (429) 
nan

>  <First Approval>  (429) 
nan

>  <ATC Codes>  (429) 
nan

>  <Level 4 ATC Codes>  (429) 
nan

>  <Level 3 ATC Codes>  (429) 
nan

>  <Level 2 ATC Codes>  (429) 
nan

>  <Level 1 ATC Codes>  (429) 
nan

>  <Indication Class>  (429) 
nan

>  <Patent>  (429) 
nan

>  <Drug Type>  (429) 
1:Synthetic Small Molecule

>  <Passes Rule of Five>  (429) 
True

>  <First In Class>  (429) 
False

>  <Chirality>  (429) 
Achiral Molecule

>  <Prodrug>  (429) 
False

>  <Oral>  (429) 
False

>  <Parenteral>  (429) 
False

>  <Topical>  (429) 
False

>  <Black Box>  (429) 
False

>  <Availability Type>  (429) 
Unknown

>  <Withdrawn Year>  (429) 
nan

>  <Withdrawn Reason>  (429) 
nan

>  <Withdrawn Country>  (429) 
nan

>  <Withdrawn Class>  (429) 
nan

>  <SMILES>  (429) 
CS(=O)(=O)F

>  <InChi Key>  (429) 
KNWQLFOXPQZGPX-UHFFFAOYSA-N

$$$$
CHEMBL3414626
     RDKit          2D

 41 46  0  0  0  0  0  0  0  0999 V2000
   -8.5441    0.6723    0.0000 C   0  0  0  0  0  0  0  0  0  0  0  0
   -8.2322   -0.7949    0.0000 C   0  0  0  0  0  0  0  0  0  0  0  0
   -9.3469   -1.7986    0.0000 C   0  0  0  0  0  0  0  0  0  0  0  0
   -6.8056   -1.2584    0.0000 N   0  0  0  0  0  0  0  0  0  0  0  0
   -6.4937   -2.7256    0.0000 C   0  0  0  0  0  0  0  0  0  0  0  0
   -5.0672   -3.1891    0.0000 C   0  0  0  0  0  0  0  0  0  0  0  0
   -3.8536   -2.3075    0.0000 O   0  0  0  0  0  0  0  0  0  0  0  0
   -2.6401   -3.1891    0.0000 C   0  0  0  0  0  0  0  0  0  0  0  0
   -1.2135   -2.7256    0.0000 N   0  0  0  0  0  0  0  0  0  0  0  0
   -0.0000   -3.6073    0.0000 C   0  0  0  0  0  0  0  0  0  0  0  0
    1.2135   -2.7256    0.0000 N   0  0  0  0  0  0  0  0  0  0  0  0
    0.7500   -1.2990    0.0000 C   0  0  0  0  0  0  0  0  0  0  0  0
    1.5000    0.0000    0.0000 C   0  0  0  0  0  0  0  0  0  0  0  0
    3.0000    0.0000    0.0000 N   0  0  0  0  0  0  0  0  0  0  0  0
    0.7500    1.2990    0.0000 N   0  0  0  0  0  0  0  0  0  0  0  0
   -0.7500    1.2990    0.0000 C   0  0  0  0  0  0  0  0  0  0  0  0
   -1.5000    0.0000    0.0000 N   0  0  0  0  0  0  0  0  0  0  0  0
   -0.7500   -1.2990    0.0000 C   0  0  0  0  0  0  0  0  0  0  0  0
   -3.1036   -4.6157    0.0000 C   0  0  0  0  0  0  0  0  0  0  0  0
   -2.2220   -5.8293    0.0000 O   0  0  0  0  0  0  0  0  0  0  0  0
   -4.6036   -4.6157    0.0000 C   0  0  0  0  0  0  0  0  0  0  0  0
   -5.4853   -5.8293    0.0000 O   0  0  0  0  0  0  0  0  0  0  0  0
   -5.6909   -0.2547    0.0000 C   0  0  0  0  0  0  0  0  0  0  0  0
   -4.1930   -0.3332    0.0000 C   0  0  0  0  0  0  0  0  0  0  0  0
   -4.1144    1.1647    0.0000 C   0  0  0  0  0  0  0  0  0  0  0  0
   -2.9997    2.1684    0.0000 C   0  0  0  0  0  0  0  0  0  0  0  0
   -3.3116    3.6357    0.0000 C   0  0  0  0  0  0  0  0  0  0  0  0
   -2.1969    4.6393    0.0000 C   0  0  0  0  0  0  0  0  0  0  0  0
   -0.7297    4.3275    0.0000 N   0  0  0  0  0  0  0  0  0  0  0  0
    0.0203    5.6265    0.0000 C   0  0  0  0  0  0  0  0  0  0  0  0
    1.4876    5.9384    0.0000 C   0  0  0  0  0  0  0  0  0  0  0  0
    1.9511    7.3650    0.0000 C   0  0  0  0  0  0  0  0  0  0  0  0
    3.4183    7.6768    0.0000 C   0  0  0  0  0  0  0  0  0  0  0  0
    3.7302    6.2096    0.0000 C   0  0  0  0  0  0  0  0  0  0  0  0
    3.1064    9.1441    0.0000 C   0  0  0  0  0  0  0  0  0  0  0  0
    4.8855    7.9887    0.0000 C   0  0  0  0  0  0  0  0  0  0  0  0
    0.9474    8.4797    0.0000 C   0  0  0  0  0  0  0  0  0  0  0  0
   -0.5198    8.1678    0.0000 C   0  0  0  0  0  0  0  0  0  0  0  0
   -0.9834    6.7412    0.0000 C   0  0  0  0  0  0  0  0  0  0  0  0
   -2.3537    6.1311    0.0000 N   0  0  0  0  0  0  0  0  0  0  0  0
   -5.6124    1.2432    0.0000 C   0  0  0  0  0  0  0  0  0  0  0  0
  1  2  1  0
  2  3  1  0
  2  4  1  0
  4  5  1  0
  6  5  1  1
  6  7  1  0
  7  8  1  0
  8  9  1  1
  9 10  1  0
 10 11  2  0
 11 12  1  0
 12 13  1  0
 13 14  2  0
 13 15  1  0
 15 16  1  0
 16 17  2  0
 17 18  1  0
  8 19  1  0
 19 20  1  6
 19 21  1  0
 21 22  1  6
 23  4  1  6
 23 24  1  0
 24 25  1  0
 25 26  1  6
 26 27  1  0
 27 28  1  0
 28 29  2  0
 29 30  1  0
 30 31  2  0
 31 32  1  0
 32 33  1  0
 33 34  1  0
 33 35  1  0
 33 36  1  0
 32 37  2  0
 37 38  1  0
 38 39  2  0
 39 40  1  0
 25 41  1  0
 21  6  1  0
 41 23  1  0
 18  9  1  0
 40 28  1  0
 18 12  2  0
 39 30  1  0
M  END
>  <Synonyms>  (430) 
PINOMETOSTAT|Pinometostat

>  <Research Codes>  (430) 
nan

>  <Phase>  (430) 
1

>  <Applicants>  (430) 
nan

>  <USAN Stem>  (430) 
'-stat'

>  <USAN Year>  (430) 
nan

>  <USAN Stem Definition>  (430) 
enzyme inhibitors

>  <USAN Stem Substem>  (430) 
'-stat(-stat)'

>  <First Approval>  (430) 
nan

>  <ATC Codes>  (430) 
nan

>  <Level 4 ATC Codes>  (430) 
nan

>  <Level 3 ATC Codes>  (430) 
nan

>  <Level 2 ATC Codes>  (430) 
nan

>  <Level 1 ATC Codes>  (430) 
nan

>  <Indication Class>  (430) 
nan

>  <Patent>  (430) 
nan

>  <Drug Type>  (430) 
7:Natural Product-derived

>  <Passes Rule of Five>  (430) 
False

>  <First In Class>  (430) 
False

>  <Chirality>  (430) 
Single Stereoisomer

>  <Prodrug>  (430) 
False

>  <Oral>  (430) 
False

>  <Parenteral>  (430) 
False

>  <Topical>  (430) 
False

>  <Black Box>  (430) 
False

>  <Availability Type>  (430) 
Unknown

>  <Withdrawn Year>  (430) 
nan

>  <Withdrawn Reason>  (430) 
nan

>  <Withdrawn Country>  (430) 
nan

>  <Withdrawn Class>  (430) 
nan

>  <SMILES>  (430) 
CC(C)N(C[C@H]1O[C@@H](n2cnc3c(N)ncnc32)[C@H](O)[C@@H]1O)[C@H]1C[C@@H](CCc2nc3cc(C(C)(C)C)ccc3[nH]2)C1

>  <InChi Key>  (430) 
LXFOLMYKSYSZQS-LURJZOHASA-N

$$$$
CHEMBL429844
     RDKit          2D

 28 29  0  0  0  0  0  0  0  0999 V2000
   -8.6181   -3.0719    0.0000 C   0  0  0  0  0  0  0  0  0  0  0  0
   -7.6144   -4.1867    0.0000 C   0  0  0  0  0  0  0  0  0  0  0  0
   -8.0779   -5.6132    0.0000 C   0  0  0  0  0  0  0  0  0  0  0  0
   -6.1471   -3.8748    0.0000 C   0  0  0  0  0  0  0  0  0  0  0  0
   -5.1434   -4.9895    0.0000 C   0  0  0  0  0  0  0  0  0  0  0  0
   -3.6762   -4.6776    0.0000 N   0  0  0  0  0  0  0  0  0  0  0  0
   -3.2127   -3.2511    0.0000 C   0  0  0  0  0  0  0  0  0  0  0  0
   -1.7455   -2.9392    0.0000 C   0  0  0  0  0  0  0  0  0  0  0  0
   -0.7418   -4.0539    0.0000 C   0  0  0  0  0  0  0  0  0  0  0  0
   -1.0537   -5.5211    0.0000 C   0  0  0  0  0  0  0  0  0  0  0  0
    0.2454   -6.2711    0.0000 N   0  0  0  0  0  0  0  0  0  0  0  0
    1.3601   -5.2674    0.0000 C   0  0  0  0  0  0  0  0  0  0  0  0
    0.7500   -3.8971    0.0000 N   0  0  0  0  0  0  0  0  0  0  0  0
    1.5000   -2.5981    0.0000 C   0  0  0  0  0  0  0  0  0  0  0  0
    0.7500   -1.2990    0.0000 C   0  0  0  0  0  0  0  0  0  0  0  0
    1.5000    0.0000    0.0000 C   0  0  0  0  0  0  0  0  0  0  0  0
    0.7500    1.2990    0.0000 C   0  0  0  0  0  0  0  0  0  0  0  0
    1.5000    2.5981    0.0000 Cl  0  0  0  0  0  0  0  0  0  0  0  0
   -0.7500    1.2990    0.0000 C   0  0  0  0  0  0  0  0  0  0  0  0
   -1.5000    0.0000    0.0000 C   0  0  0  0  0  0  0  0  0  0  0  0
   -3.0000    0.0000    0.0000 Cl  0  0  0  0  0  0  0  0  0  0  0  0
   -0.7500   -1.2990    0.0000 C   0  0  0  0  0  0  0  0  0  0  0  0
   -4.2164   -2.1363    0.0000 C   0  0  0  0  0  0  0  0  0  0  0  0
   -5.6836   -2.4482    0.0000 O   0  0  0  0  0  0  0  0  0  0  0  0
   -3.7529   -0.7098    0.0000 O   0  0  0  0  0  0  0  0  0  0  0  0
   -5.6070   -6.4161    0.0000 C   0  0  0  0  0  0  0  0  0  0  0  0
   -7.0742   -6.7280    0.0000 O   0  0  0  0  0  0  0  0  0  0  0  0
   -4.6033   -7.5308    0.0000 O   0  0  0  0  0  0  0  0  0  0  0  0
  1  2  1  0
  2  3  1  0
  2  4  1  0
  4  5  1  0
  5  6  1  0
  6  7  1  0
  7  8  1  0
  8  9  1  0
  9 10  2  0
 10 11  1  0
 11 12  2  0
 12 13  1  0
 13 14  1  0
 14 15  1  0
 15 16  2  0
 16 17  1  0
 17 18  1  0
 17 19  2  0
 19 20  1  0
 20 21  1  0
 20 22  2  0
  7 23  1  0
 23 24  2  0
 23 25  1  0
  5 26  1  0
 26 27  2  0
 26 28  1  0
 13  9  1  0
 22 15  1  0
M  END
>  <Synonyms>  (431) 
GL1001|MLN-4760|ORE-1001|ORE-1001 FREE ACID|ORE1001

>  <Research Codes>  (431) 
GL1001|MLN-4760|ORE-1001 FREE ACID|ORE1001

>  <Phase>  (431) 
1

>  <Applicants>  (431) 
nan

>  <USAN Stem>  (431) 
nan

>  <USAN Year>  (431) 
nan

>  <USAN Stem Definition>  (431) 
nan

>  <USAN Stem Substem>  (431) 
nan

>  <First Approval>  (431) 
nan

>  <ATC Codes>  (431) 
nan

>  <Level 4 ATC Codes>  (431) 
nan

>  <Level 3 ATC Codes>  (431) 
nan

>  <Level 2 ATC Codes>  (431) 
nan

>  <Level 1 ATC Codes>  (431) 
nan

>  <Indication Class>  (431) 
nan

>  <Patent>  (431) 
nan

>  <Drug Type>  (431) 
1:Synthetic Small Molecule

>  <Passes Rule of Five>  (431) 
True

>  <First In Class>  (431) 
False

>  <Chirality>  (431) 
Single Stereoisomer

>  <Prodrug>  (431) 
False

>  <Oral>  (431) 
False

>  <Parenteral>  (431) 
False

>  <Topical>  (431) 
False

>  <Black Box>  (431) 
False

>  <Availability Type>  (431) 
Unknown

>  <Withdrawn Year>  (431) 
nan

>  <Withdrawn Reason>  (431) 
nan

>  <Withdrawn Country>  (431) 
nan

>  <Withdrawn Class>  (431) 
nan

>  <SMILES>  (431) 
CC(C)C[C@H](N[C@@H](Cc1cncn1Cc1cc(Cl)cc(Cl)c1)C(=O)O)C(=O)O

>  <InChi Key>  (431) 
NTCCRGGIJNDEAB-UHFFFAOYSA-N

$$$$
CHEMBL4297261
     RDKit          2D

 28 33  0  0  0  0  0  0  0  0999 V2000
    3.4651   -7.6472    0.0000 C   0  0  0  0  0  0  0  0  0  0  0  0
    4.5798   -6.6435    0.0000 C   0  0  0  0  0  0  0  0  0  0  0  0
    6.0471   -6.9554    0.0000 N   0  0  0  0  0  0  0  0  0  0  0  0
    6.7971   -5.6563    0.0000 C   0  0  0  0  0  0  0  0  0  0  0  0
    8.2643   -5.3445    0.0000 C   0  0  0  0  0  0  0  0  0  0  0  0
    8.7278   -3.9179    0.0000 C   0  0  0  0  0  0  0  0  0  0  0  0
    7.7241   -2.8032    0.0000 C   0  0  0  0  0  0  0  0  0  0  0  0
    8.1876   -1.3766    0.0000 F   0  0  0  0  0  0  0  0  0  0  0  0
    6.2569   -3.1150    0.0000 C   0  0  0  0  0  0  0  0  0  0  0  0
    5.7934   -4.5416    0.0000 C   0  0  0  0  0  0  0  0  0  0  0  0
    4.4231   -5.1517    0.0000 C   0  0  0  0  0  0  0  0  0  0  0  0
    3.1240   -4.4017    0.0000 C   0  0  0  0  0  0  0  0  0  0  0  0
    2.9672   -2.9099    0.0000 N   0  0  0  0  0  0  0  0  0  0  0  0
    1.5000   -2.5981    0.0000 C   0  0  0  0  0  0  0  0  0  0  0  0
    0.7500   -1.2990    0.0000 C   0  0  0  0  0  0  0  0  0  0  0  0
    1.5000    0.0000    0.0000 C   0  0  0  0  0  0  0  0  0  0  0  0
    0.7500    1.2990    0.0000 C   0  0  0  0  0  0  0  0  0  0  0  0
   -0.7500    1.2990    0.0000 C   0  0  0  0  0  0  0  0  0  0  0  0
   -1.5000    0.0000    0.0000 N   0  0  0  0  0  0  0  0  0  0  0  0
   -0.7500   -1.2990    0.0000 C   0  0  0  0  0  0  0  0  0  0  0  0
   -1.5000   -2.5981    0.0000 C   0  0  0  0  0  0  0  0  0  0  0  0
   -3.0000   -2.5981    0.0000 N   0  0  0  0  0  0  0  0  0  0  0  0
   -3.7500   -3.8971    0.0000 C   0  0  0  0  0  0  0  0  0  0  0  0
   -3.0000   -5.1962    0.0000 C   0  0  0  0  0  0  0  0  0  0  0  0
   -1.5000   -5.1962    0.0000 C   0  0  0  0  0  0  0  0  0  0  0  0
   -0.7500   -3.8971    0.0000 C   0  0  0  0  0  0  0  0  0  0  0  0
    0.7500   -3.8971    0.0000 C   0  0  0  0  0  0  0  0  0  0  0  0
    1.7537   -5.0118    0.0000 N   0  0  0  0  0  0  0  0  0  0  0  0
  1  2  1  0
  2  3  1  0
  3  4  1  0
  4  5  2  0
  5  6  1  0
  6  7  2  0
  7  8  1  0
  7  9  1  0
  9 10  2  0
 10 11  1  0
 11 12  1  0
 12 13  2  0
 13 14  1  0
 14 15  2  0
 15 16  1  0
 16 17  2  0
 17 18  1  0
 18 19  2  0
 19 20  1  0
 20 21  2  0
 21 22  1  0
 22 23  1  0
 23 24  2  0
 24 25  1  0
 25 26  2  0
 26 27  1  0
 27 28  2  0
 11  2  2  0
 28 12  1  0
 10  4  1  0
 27 14  1  0
 20 15  1  0
 26 21  1  0
M  END
>  <Synonyms>  (432) 
APTO-253|LOR-253|LOR-253(FORMER CODE)|LT-253(FORMER CODE)

>  <Research Codes>  (432) 
LOR-253|LOR-253(FORMER CODE)|LT-253(FORMER CODE)

>  <Phase>  (432) 
1

>  <Applicants>  (432) 
nan

>  <USAN Stem>  (432) 
nan

>  <USAN Year>  (432) 
nan

>  <USAN Stem Definition>  (432) 
nan

>  <USAN Stem Substem>  (432) 
nan

>  <First Approval>  (432) 
nan

>  <ATC Codes>  (432) 
nan

>  <Level 4 ATC Codes>  (432) 
nan

>  <Level 3 ATC Codes>  (432) 
nan

>  <Level 2 ATC Codes>  (432) 
nan

>  <Level 1 ATC Codes>  (432) 
nan

>  <Indication Class>  (432) 
nan

>  <Patent>  (432) 
nan

>  <Drug Type>  (432) 
1:Synthetic Small Molecule

>  <Passes Rule of Five>  (432) 
False

>  <First In Class>  (432) 
False

>  <Chirality>  (432) 
Achiral Molecule

>  <Prodrug>  (432) 
False

>  <Oral>  (432) 
False

>  <Parenteral>  (432) 
False

>  <Topical>  (432) 
False

>  <Black Box>  (432) 
False

>  <Availability Type>  (432) 
Unknown

>  <Withdrawn Year>  (432) 
nan

>  <Withdrawn Reason>  (432) 
nan

>  <Withdrawn Country>  (432) 
nan

>  <Withdrawn Class>  (432) 
nan

>  <SMILES>  (432) 
Cc1[nH]c2ccc(F)cc2c1-c1nc2c3cccnc3c3ncccc3c2[nH]1

>  <InChi Key>  (432) 
XHFARPUAMCYXFV-UHFFFAOYSA-N

$$$$
CHEMBL494089
     RDKit          2D

 31 34  0  0  0  0  0  0  0  0999 V2000
   -3.7548   -2.1855    0.0000 C   0  0  0  0  0  0  0  0  0  0  0  0
   -2.6401   -3.1891    0.0000 C   0  0  0  0  0  0  0  0  0  0  0  0
   -1.2135   -2.7256    0.0000 N   0  0  0  0  0  0  0  0  0  0  0  0
   -0.0000   -3.6073    0.0000 C   0  0  0  0  0  0  0  0  0  0  0  0
   -0.0000   -5.1073    0.0000 C   0  0  0  0  0  0  0  0  0  0  0  0
    1.2135   -5.9890    0.0000 N   0  0  0  0  0  0  0  0  0  0  0  0
    0.7500   -7.4156    0.0000 O   0  0  0  0  0  0  0  0  0  0  0  0
   -0.7500   -7.4156    0.0000 N   0  0  0  0  0  0  0  0  0  0  0  0
   -1.2135   -5.9890    0.0000 C   0  0  0  0  0  0  0  0  0  0  0  0
   -2.6401   -5.5255    0.0000 N   0  0  0  0  0  0  0  0  0  0  0  0
    1.2135   -2.7256    0.0000 N   0  0  0  0  0  0  0  0  0  0  0  0
    0.7500   -1.2990    0.0000 C   0  0  0  0  0  0  0  0  0  0  0  0
    1.5000    0.0000    0.0000 C   0  0  0  0  0  0  0  0  0  0  0  0
    3.0000    0.0000    0.0000 C   0  0  0  0  0  0  0  0  0  0  0  0
    4.5000    0.0000    0.0000 C   0  0  0  0  0  0  0  0  0  0  0  0
    6.0000    0.0000    0.0000 C   0  0  0  0  0  0  0  0  0  0  0  0
    6.0000   -1.5000    0.0000 C   0  0  0  0  0  0  0  0  0  0  0  0
    6.0000    1.5000    0.0000 C   0  0  0  0  0  0  0  0  0  0  0  0
    7.5000    0.0000    0.0000 O   0  0  0  0  0  0  0  0  0  0  0  0
    0.7500    1.2990    0.0000 N   0  0  0  0  0  0  0  0  0  0  0  0
   -0.7500    1.2990    0.0000 C   0  0  0  0  0  0  0  0  0  0  0  0
   -1.5000    0.0000    0.0000 C   0  0  0  0  0  0  0  0  0  0  0  0
   -3.0000    0.0000    0.0000 O   0  0  0  0  0  0  0  0  0  0  0  0
   -3.7500    1.2990    0.0000 C   0  0  0  0  0  0  0  0  0  0  0  0
   -5.2500    1.2990    0.0000 C   0  0  0  0  0  0  0  0  0  0  0  0
   -6.0000    2.5981    0.0000 C   0  0  0  0  0  0  0  0  0  0  0  0
   -7.5000    2.5981    0.0000 C   0  0  0  0  0  0  0  0  0  0  0  0
   -8.2500    1.2990    0.0000 C   0  0  0  0  0  0  0  0  0  0  0  0
   -7.5000    0.0000    0.0000 N   0  0  0  0  0  0  0  0  0  0  0  0
   -6.0000    0.0000    0.0000 C   0  0  0  0  0  0  0  0  0  0  0  0
   -0.7500   -1.2990    0.0000 C   0  0  0  0  0  0  0  0  0  0  0  0
  1  2  1  0
  2  3  1  0
  3  4  1  0
  4  5  1  0
  5  6  2  0
  6  7  1  0
  7  8  1  0
  8  9  1  0
  9 10  2  0
  4 11  2  0
 11 12  1  0
 12 13  2  0
 13 14  1  0
 14 15  3  0
 15 16  1  0
 16 17  1  0
 16 18  1  0
 16 19  1  0
 13 20  1  0
 20 21  2  0
 21 22  1  0
 22 23  1  0
 23 24  1  0
 25 24  1  6
 25 26  1  0
 26 27  1  0
 27 28  1  0
 28 29  1  0
 29 30  1  0
 22 31  2  0
 31  3  1  0
  9  5  1  0
 31 12  1  0
 30 25  1  0
M  END
>  <Synonyms>  (433) 
GSK 690693|GSK-690693|GSK690693

>  <Research Codes>  (433) 
GSK 690693|GSK690693

>  <Phase>  (433) 
1

>  <Applicants>  (433) 
nan

>  <USAN Stem>  (433) 
nan

>  <USAN Year>  (433) 
nan

>  <USAN Stem Definition>  (433) 
nan

>  <USAN Stem Substem>  (433) 
nan

>  <First Approval>  (433) 
nan

>  <ATC Codes>  (433) 
nan

>  <Level 4 ATC Codes>  (433) 
nan

>  <Level 3 ATC Codes>  (433) 
nan

>  <Level 2 ATC Codes>  (433) 
nan

>  <Level 1 ATC Codes>  (433) 
nan

>  <Indication Class>  (433) 
nan

>  <Patent>  (433) 
nan

>  <Drug Type>  (433) 
1:Synthetic Small Molecule

>  <Passes Rule of Five>  (433) 
True

>  <First In Class>  (433) 
False

>  <Chirality>  (433) 
Single Stereoisomer

>  <Prodrug>  (433) 
False

>  <Oral>  (433) 
False

>  <Parenteral>  (433) 
False

>  <Topical>  (433) 
False

>  <Black Box>  (433) 
False

>  <Availability Type>  (433) 
Unknown

>  <Withdrawn Year>  (433) 
nan

>  <Withdrawn Reason>  (433) 
nan

>  <Withdrawn Country>  (433) 
nan

>  <Withdrawn Class>  (433) 
nan

>  <SMILES>  (433) 
CCn1c(-c2nonc2N)nc2c(C#CC(C)(C)O)ncc(OC[C@H]3CCCNC3)c21

>  <InChi Key>  (433) 
KGPGFQWBCSZGEL-ZDUSSCGKSA-N

$$$$
CHEMBL1614766
     RDKit          2D

 32 34  0  0  0  0  0  0  0  0999 V2000
    3.7500    1.2990    0.0000 O   0  0  0  0  0  0  0  0  0  0  0  0
    3.0000    0.0000    0.0000 C   0  0  0  0  0  0  0  0  0  0  0  0
    3.7500   -1.2990    0.0000 N   0  0  0  0  0  0  0  0  0  0  0  0
    5.2500   -1.2990    0.0000 O   0  0  0  0  0  0  0  0  0  0  0  0
    6.0000   -2.5981    0.0000 C   0  0  0  0  0  0  0  0  0  0  0  0
    7.5000   -2.5981    0.0000 C   0  0  0  0  0  0  0  0  0  0  0  0
    8.2500   -3.8971    0.0000 O   0  0  0  0  0  0  0  0  0  0  0  0
    1.5000    0.0000    0.0000 C   0  0  0  0  0  0  0  0  0  0  0  0
    0.7500   -1.2990    0.0000 C   0  0  0  0  0  0  0  0  0  0  0  0
   -0.7500   -1.2990    0.0000 C   0  0  0  0  0  0  0  0  0  0  0  0
   -1.5000   -2.5981    0.0000 C   0  0  0  0  0  0  0  0  0  0  0  0
   -3.0000   -2.5981    0.0000 N   0  0  0  0  0  0  0  0  0  0  0  0
   -3.7500   -1.2990    0.0000 O   0  0  0  0  0  0  0  0  0  0  0  0
   -5.2500   -1.2990    0.0000 C   0  0  0  0  0  0  0  0  0  0  0  0
   -6.0000   -2.5981    0.0000 C   0  0  0  0  0  0  0  0  0  0  0  0
   -5.2500   -3.8971    0.0000 C   0  0  0  0  0  0  0  0  0  0  0  0
   -3.7500   -3.8971    0.0000 C   0  0  0  0  0  0  0  0  0  0  0  0
   -3.0000   -5.1962    0.0000 O   0  0  0  0  0  0  0  0  0  0  0  0
   -1.5000    0.0000    0.0000 C   0  0  0  0  0  0  0  0  0  0  0  0
   -3.0000    0.0000    0.0000 F   0  0  0  0  0  0  0  0  0  0  0  0
   -0.7500    1.2990    0.0000 C   0  0  0  0  0  0  0  0  0  0  0  0
   -1.5000    2.5981    0.0000 F   0  0  0  0  0  0  0  0  0  0  0  0
    0.7500    1.2990    0.0000 C   0  0  0  0  0  0  0  0  0  0  0  0
    1.5000    2.5981    0.0000 N   0  0  0  0  0  0  0  0  0  0  0  0
    0.7500    3.8971    0.0000 C   0  0  0  0  0  0  0  0  0  0  0  0
   -0.7500    3.8971    0.0000 C   0  0  0  0  0  0  0  0  0  0  0  0
   -1.5000    5.1962    0.0000 C   0  0  0  0  0  0  0  0  0  0  0  0
   -0.7500    6.4952    0.0000 C   0  0  0  0  0  0  0  0  0  0  0  0
   -1.5000    7.7942    0.0000 I   0  0  0  0  0  0  0  0  0  0  0  0
    0.7500    6.4952    0.0000 C   0  0  0  0  0  0  0  0  0  0  0  0
    1.5000    5.1962    0.0000 C   0  0  0  0  0  0  0  0  0  0  0  0
    3.0000    5.1962    0.0000 F   0  0  0  0  0  0  0  0  0  0  0  0
  1  2  2  0
  2  3  1  0
  3  4  1  0
  4  5  1  0
  5  6  1  0
  6  7  1  0
  2  8  1  0
  8  9  2  0
  9 10  1  0
 10 11  1  0
 11 12  1  0
 12 13  1  0
 13 14  1  0
 14 15  1  0
 15 16  1  0
 16 17  1  0
 17 18  2  0
 10 19  2  0
 19 20  1  0
 19 21  1  0
 21 22  1  0
 21 23  2  0
 23 24  1  0
 24 25  1  0
 25 26  2  0
 26 27  1  0
 27 28  2  0
 28 29  1  0
 28 30  1  0
 30 31  2  0
 31 32  1  0
 23  8  1  0
 31 25  1  0
 17 12  1  0
M  END
>  <Synonyms>  (434) 
CH-4987655|RO 4987655|RO4987655|Ro-4987655

>  <Research Codes>  (434) 
CH-4987655|RO4987655|Ro-4987655

>  <Phase>  (434) 
1

>  <Applicants>  (434) 
nan

>  <USAN Stem>  (434) 
nan

>  <USAN Year>  (434) 
nan

>  <USAN Stem Definition>  (434) 
nan

>  <USAN Stem Substem>  (434) 
nan

>  <First Approval>  (434) 
nan

>  <ATC Codes>  (434) 
nan

>  <Level 4 ATC Codes>  (434) 
nan

>  <Level 3 ATC Codes>  (434) 
nan

>  <Level 2 ATC Codes>  (434) 
nan

>  <Level 1 ATC Codes>  (434) 
nan

>  <Indication Class>  (434) 
nan

>  <Patent>  (434) 
nan

>  <Drug Type>  (434) 
1:Synthetic Small Molecule

>  <Passes Rule of Five>  (434) 
False

>  <First In Class>  (434) 
False

>  <Chirality>  (434) 
Achiral Molecule

>  <Prodrug>  (434) 
False

>  <Oral>  (434) 
False

>  <Parenteral>  (434) 
False

>  <Topical>  (434) 
False

>  <Black Box>  (434) 
False

>  <Availability Type>  (434) 
Unknown

>  <Withdrawn Year>  (434) 
nan

>  <Withdrawn Reason>  (434) 
nan

>  <Withdrawn Country>  (434) 
nan

>  <Withdrawn Class>  (434) 
nan

>  <SMILES>  (434) 
O=C(NOCCO)c1cc(CN2OCCCC2=O)c(F)c(F)c1Nc1ccc(I)cc1F

>  <InChi Key>  (434) 
FIMYFEGKMOCQKT-UHFFFAOYSA-N

$$$$
CHEMBL2064455
     RDKit          2D

 18 19  0  0  0  0  0  0  0  0999 V2000
    3.0000    0.0000    0.0000 N   0  0  0  0  0  0  0  0  0  0  0  0
    1.5000    0.0000    0.0000 C   0  0  0  0  0  0  0  0  0  0  0  0
    0.7500   -1.2990    0.0000 C   0  0  0  0  0  0  0  0  0  0  0  0
   -0.7500   -1.2990    0.0000 C   0  0  0  0  0  0  0  0  0  0  0  0
   -1.5000    0.0000    0.0000 N   0  0  0  0  0  0  0  0  0  0  0  0
   -3.0000    0.0000    0.0000 C   0  0  0  0  0  0  0  0  0  0  0  0
   -3.8817   -1.2135    0.0000 C   0  0  0  0  0  0  0  0  0  0  0  0
   -3.4182   -2.6401    0.0000 F   0  0  0  0  0  0  0  0  0  0  0  0
   -5.3083   -0.7500    0.0000 C   0  0  0  0  0  0  0  0  0  0  0  0
   -6.5218   -1.6317    0.0000 C   0  0  0  0  0  0  0  0  0  0  0  0
   -7.8921   -1.0216    0.0000 O   0  0  0  0  0  0  0  0  0  0  0  0
   -5.3083    0.7500    0.0000 C   0  0  0  0  0  0  0  0  0  0  0  0
   -6.5218    1.6317    0.0000 O   0  0  0  0  0  0  0  0  0  0  0  0
   -3.8817    1.2135    0.0000 C   0  0  0  0  0  0  0  0  0  0  0  0
   -3.4182    2.6401    0.0000 O   0  0  0  0  0  0  0  0  0  0  0  0
   -0.7500    1.2990    0.0000 C   0  0  0  0  0  0  0  0  0  0  0  0
   -1.5000    2.5981    0.0000 O   0  0  0  0  0  0  0  0  0  0  0  0
    0.7500    1.2990    0.0000 N   0  0  0  0  0  0  0  0  0  0  0  0
  1  2  2  0
  2  3  1  0
  3  4  2  0
  4  5  1  0
  6  5  1  6
  6  7  1  0
  7  8  1  0
  7  9  2  0
  9 10  1  0
 10 11  1  0
  9 12  1  0
 12 13  1  1
 12 14  1  0
 14 15  1  1
  5 16  1  0
 16 17  2  0
 16 18  1  0
 18  2  1  0
 14  6  1  0
M  END
>  <Synonyms>  (435) 
FLUOROCYCLOPENTENYLCYTOSINE|RX-3117|TV-1360

>  <Research Codes>  (435) 
RX-3117|TV-1360

>  <Phase>  (435) 
1

>  <Applicants>  (435) 
nan

>  <USAN Stem>  (435) 
nan

>  <USAN Year>  (435) 
nan

>  <USAN Stem Definition>  (435) 
nan

>  <USAN Stem Substem>  (435) 
nan

>  <First Approval>  (435) 
nan

>  <ATC Codes>  (435) 
nan

>  <Level 4 ATC Codes>  (435) 
nan

>  <Level 3 ATC Codes>  (435) 
nan

>  <Level 2 ATC Codes>  (435) 
nan

>  <Level 1 ATC Codes>  (435) 
nan

>  <Indication Class>  (435) 
nan

>  <Patent>  (435) 
nan

>  <Drug Type>  (435) 
7:Natural Product-derived

>  <Passes Rule of Five>  (435) 
True

>  <First In Class>  (435) 
False

>  <Chirality>  (435) 
Single Stereoisomer

>  <Prodrug>  (435) 
False

>  <Oral>  (435) 
False

>  <Parenteral>  (435) 
False

>  <Topical>  (435) 
False

>  <Black Box>  (435) 
False

>  <Availability Type>  (435) 
Unknown

>  <Withdrawn Year>  (435) 
nan

>  <Withdrawn Reason>  (435) 
nan

>  <Withdrawn Country>  (435) 
nan

>  <Withdrawn Class>  (435) 
nan

>  <SMILES>  (435) 
Nc1ccn([C@@H]2C(F)=C(CO)[C@@H](O)[C@H]2O)c(=O)n1

>  <InChi Key>  (435) 
QLLGKCJUPWYJON-HLTSFMKQSA-N

$$$$
CHEMBL65067
     RDKit          2D

 36 40  0  0  0  0  0  0  0  0999 V2000
  -12.7500   -6.4952    0.0000 O   0  0  0  0  0  0  0  0  0  0  0  0
  -12.0000   -5.1962    0.0000 C   0  0  0  0  0  0  0  0  0  0  0  0
  -12.7500   -3.8971    0.0000 C   0  0  0  0  0  0  0  0  0  0  0  0
  -14.2500   -3.8971    0.0000 C   0  0  0  0  0  0  0  0  0  0  0  0
  -15.0000   -2.5981    0.0000 C   0  0  0  0  0  0  0  0  0  0  0  0
  -16.5000   -2.5981    0.0000 C   0  0  0  0  0  0  0  0  0  0  0  0
  -17.2500   -3.8971    0.0000 C   0  0  0  0  0  0  0  0  0  0  0  0
  -16.5000   -5.1962    0.0000 C   0  0  0  0  0  0  0  0  0  0  0  0
  -15.0000   -5.1962    0.0000 C   0  0  0  0  0  0  0  0  0  0  0  0
  -12.0000   -2.5981    0.0000 C   0  0  0  0  0  0  0  0  0  0  0  0
  -10.5000   -2.5981    0.0000 C   0  0  0  0  0  0  0  0  0  0  0  0
   -9.7500   -1.2990    0.0000 C   0  0  0  0  0  0  0  0  0  0  0  0
  -10.5000    0.0000    0.0000 C   0  0  0  0  0  0  0  0  0  0  0  0
  -12.0000    0.0000    0.0000 C   0  0  0  0  0  0  0  0  0  0  0  0
  -12.7500   -1.2990    0.0000 C   0  0  0  0  0  0  0  0  0  0  0  0
  -10.5000   -5.1962    0.0000 N   0  0  0  0  0  0  0  0  0  0  0  0
   -9.7500   -6.4952    0.0000 C   0  0  0  0  0  0  0  0  0  0  0  0
   -8.2500   -6.4952    0.0000 C   0  0  0  0  0  0  0  0  0  0  0  0
   -7.5000   -5.1962    0.0000 N   0  0  0  0  0  0  0  0  0  0  0  0
   -6.0000   -5.1962    0.0000 C   0  0  0  0  0  0  0  0  0  0  0  0
   -5.2500   -3.8971    0.0000 C   0  0  0  0  0  0  0  0  0  0  0  0
   -6.0000   -2.5981    0.0000 O   0  0  0  0  0  0  0  0  0  0  0  0
   -3.7500   -3.8971    0.0000 C   0  0  0  0  0  0  0  0  0  0  0  0
   -3.0000   -2.5981    0.0000 O   0  0  0  0  0  0  0  0  0  0  0  0
   -1.5000   -2.5981    0.0000 C   0  0  0  0  0  0  0  0  0  0  0  0
   -0.7500   -3.8971    0.0000 C   0  0  0  0  0  0  0  0  0  0  0  0
    0.7500   -3.8971    0.0000 C   0  0  0  0  0  0  0  0  0  0  0  0
    1.5000   -2.5981    0.0000 C   0  0  0  0  0  0  0  0  0  0  0  0
    0.7500   -1.2990    0.0000 C   0  0  0  0  0  0  0  0  0  0  0  0
    1.5000    0.0000    0.0000 N   0  0  0  0  0  0  0  0  0  0  0  0
    0.7500    1.2990    0.0000 C   0  0  0  0  0  0  0  0  0  0  0  0
   -0.7500    1.2990    0.0000 C   0  0  0  0  0  0  0  0  0  0  0  0
   -1.5000    0.0000    0.0000 C   0  0  0  0  0  0  0  0  0  0  0  0
   -0.7500   -1.2990    0.0000 C   0  0  0  0  0  0  0  0  0  0  0  0
   -8.2500   -3.8971    0.0000 C   0  0  0  0  0  0  0  0  0  0  0  0
   -9.7500   -3.8971    0.0000 C   0  0  0  0  0  0  0  0  0  0  0  0
  1  2  2  0
  2  3  1  0
  3  4  1  0
  4  5  2  0
  5  6  1  0
  6  7  2  0
  7  8  1  0
  8  9  2  0
  3 10  1  0
 10 11  2  0
 11 12  1  0
 12 13  2  0
 13 14  1  0
 14 15  2  0
  2 16  1  0
 16 17  1  0
 17 18  1  0
 18 19  1  0
 19 20  1  0
 20 21  1  0
 21 22  1  0
 21 23  1  0
 23 24  1  0
 24 25  1  0
 25 26  2  0
 26 27  1  0
 27 28  2  0
 28 29  1  0
 29 30  2  0
 30 31  1  0
 31 32  2  0
 32 33  1  0
 33 34  2  0
 19 35  1  0
 35 36  1  0
  9  4  1  0
 15 10  1  0
 36 16  1  0
 34 25  1  0
 34 29  1  0
M  END
>  <Synonyms>  (436) 
DOFEQUIDAR

>  <Research Codes>  (436) 
nan

>  <Phase>  (436) 
1

>  <Applicants>  (436) 
nan

>  <USAN Stem>  (436) 
'-dar'

>  <USAN Year>  (436) 
nan

>  <USAN Stem Definition>  (436) 
multidrug resistance inhibitors: quinoline derivatives

>  <USAN Stem Substem>  (436) 
'-dar(-dar (-quidar))'

>  <First Approval>  (436) 
nan

>  <ATC Codes>  (436) 
nan

>  <Level 4 ATC Codes>  (436) 
nan

>  <Level 3 ATC Codes>  (436) 
nan

>  <Level 2 ATC Codes>  (436) 
nan

>  <Level 1 ATC Codes>  (436) 
nan

>  <Indication Class>  (436) 
nan

>  <Patent>  (436) 
nan

>  <Drug Type>  (436) 
1:Synthetic Small Molecule

>  <Passes Rule of Five>  (436) 
True

>  <First In Class>  (436) 
False

>  <Chirality>  (436) 
Racemic Mixture

>  <Prodrug>  (436) 
False

>  <Oral>  (436) 
False

>  <Parenteral>  (436) 
False

>  <Topical>  (436) 
False

>  <Black Box>  (436) 
False

>  <Availability Type>  (436) 
Unknown

>  <Withdrawn Year>  (436) 
nan

>  <Withdrawn Reason>  (436) 
nan

>  <Withdrawn Country>  (436) 
nan

>  <Withdrawn Class>  (436) 
nan

>  <SMILES>  (436) 
O=C(C(c1ccccc1)c1ccccc1)N1CCN(CC(O)COc2cccc3ncccc23)CC1

>  <InChi Key>  (436) 
KLWUUPVJTLHYIM-UHFFFAOYSA-N

$$$$
CHEMBL2140408
     RDKit          2D

 37 42  0  0  0  0  0  0  0  0999 V2000
   -6.5218   -0.9664    0.0000 C   0  0  0  0  0  0  0  0  0  0  0  0
   -5.3083   -1.8481    0.0000 C   0  0  0  0  0  0  0  0  0  0  0  0
   -5.3083   -3.3481    0.0000 C   0  0  0  0  0  0  0  0  0  0  0  0
   -3.8817   -3.8116    0.0000 S   0  0  0  0  0  0  0  0  0  0  0  0
   -3.0000   -2.5981    0.0000 C   0  0  0  0  0  0  0  0  0  0  0  0
   -1.5000   -2.5981    0.0000 C   0  0  0  0  0  0  0  0  0  0  0  0
   -0.7500   -3.8971    0.0000 N   0  0  0  0  0  0  0  0  0  0  0  0
    0.7500   -3.8971    0.0000 N   0  0  0  0  0  0  0  0  0  0  0  0
    1.5000   -2.5981    0.0000 C   0  0  0  0  0  0  0  0  0  0  0  0
    3.0000   -2.5981    0.0000 N   0  0  0  0  0  0  0  0  0  0  0  0
    3.7500   -3.8971    0.0000 C   0  0  0  0  0  0  0  0  0  0  0  0
    3.0000   -5.1962    0.0000 C   0  0  0  0  0  0  0  0  0  0  0  0
    3.7500   -6.4952    0.0000 C   0  0  0  0  0  0  0  0  0  0  0  0
    5.2500   -6.4952    0.0000 C   0  0  0  0  0  0  0  0  0  0  0  0
    6.0000   -7.7942    0.0000 O   0  0  0  0  0  0  0  0  0  0  0  0
    5.2500   -9.0933    0.0000 C   0  0  0  0  0  0  0  0  0  0  0  0
    3.7500   -9.0933    0.0000 N   0  0  0  0  0  0  0  0  0  0  0  0
    3.0000  -10.3923    0.0000 C   0  0  0  0  0  0  0  0  0  0  0  0
    3.7500  -11.6913    0.0000 C   0  0  0  0  0  0  0  0  0  0  0  0
    5.2500  -11.6913    0.0000 C   0  0  0  0  0  0  0  0  0  0  0  0
    6.0000  -10.3923    0.0000 C   0  0  0  0  0  0  0  0  0  0  0  0
    7.5000  -10.3923    0.0000 C   0  0  0  0  0  0  0  0  0  0  0  0
    8.2500  -11.6913    0.0000 C   0  0  0  0  0  0  0  0  0  0  0  0
    9.7500  -11.6913    0.0000 C   0  0  0  0  0  0  0  0  0  0  0  0
   10.5000  -10.3923    0.0000 N   0  0  0  0  0  0  0  0  0  0  0  0
    9.7500   -9.0933    0.0000 C   0  0  0  0  0  0  0  0  0  0  0  0
   10.5000   -7.7942    0.0000 N   0  0  0  0  0  0  0  0  0  0  0  0
    8.2500   -9.0933    0.0000 N   0  0  0  0  0  0  0  0  0  0  0  0
    6.0000   -5.1962    0.0000 C   0  0  0  0  0  0  0  0  0  0  0  0
    5.2500   -3.8971    0.0000 C   0  0  0  0  0  0  0  0  0  0  0  0
    0.7500   -1.2990    0.0000 C   0  0  0  0  0  0  0  0  0  0  0  0
    1.5000    0.0000    0.0000 C   0  0  0  0  0  0  0  0  0  0  0  0
    0.7500    1.2990    0.0000 C   0  0  0  0  0  0  0  0  0  0  0  0
   -0.7500    1.2990    0.0000 C   0  0  0  0  0  0  0  0  0  0  0  0
   -1.5000    0.0000    0.0000 C   0  0  0  0  0  0  0  0  0  0  0  0
   -0.7500   -1.2990    0.0000 C   0  0  0  0  0  0  0  0  0  0  0  0
   -3.8817   -1.3846    0.0000 C   0  0  0  0  0  0  0  0  0  0  0  0
  1  2  1  0
  2  3  2  0
  3  4  1  0
  4  5  1  0
  5  6  1  0
  6  7  2  0
  7  8  1  0
  8  9  1  0
  9 10  2  3
 10 11  1  0
 11 12  2  0
 12 13  1  0
 13 14  2  0
 14 15  1  0
 15 16  1  0
 16 17  2  0
 17 18  1  0
 18 19  2  0
 19 20  1  0
 20 21  2  0
 21 22  1  0
 22 23  1  0
 23 24  2  0
 24 25  1  0
 25 26  1  0
 26 27  2  0
 26 28  1  0
 14 29  1  0
 29 30  2  0
  9 31  1  0
 31 32  2  0
 32 33  1  0
 33 34  2  0
 34 35  1  0
 35 36  2  0
  5 37  2  0
 37  2  1  0
 36  6  1  0
 30 11  1  0
 36 31  1  0
 21 16  1  0
 28 22  2  0
M  END
>  <Synonyms>  (437) 
AMG 900|AMG-900|AMG900

>  <Research Codes>  (437) 
AMG-900|AMG900

>  <Phase>  (437) 
1

>  <Applicants>  (437) 
nan

>  <USAN Stem>  (437) 
nan

>  <USAN Year>  (437) 
nan

>  <USAN Stem Definition>  (437) 
nan

>  <USAN Stem Substem>  (437) 
nan

>  <First Approval>  (437) 
nan

>  <ATC Codes>  (437) 
nan

>  <Level 4 ATC Codes>  (437) 
nan

>  <Level 3 ATC Codes>  (437) 
nan

>  <Level 2 ATC Codes>  (437) 
nan

>  <Level 1 ATC Codes>  (437) 
nan

>  <Indication Class>  (437) 
nan

>  <Patent>  (437) 
nan

>  <Drug Type>  (437) 
1:Synthetic Small Molecule

>  <Passes Rule of Five>  (437) 
False

>  <First In Class>  (437) 
False

>  <Chirality>  (437) 
Achiral Molecule

>  <Prodrug>  (437) 
False

>  <Oral>  (437) 
False

>  <Parenteral>  (437) 
False

>  <Topical>  (437) 
False

>  <Black Box>  (437) 
False

>  <Availability Type>  (437) 
Unknown

>  <Withdrawn Year>  (437) 
nan

>  <Withdrawn Reason>  (437) 
nan

>  <Withdrawn Country>  (437) 
nan

>  <Withdrawn Class>  (437) 
nan

>  <SMILES>  (437) 
Cc1csc(-c2nnc(Nc3ccc(Oc4ncccc4-c4ccnc(N)n4)cc3)c3ccccc23)c1

>  <InChi Key>  (437) 
IVUGFMLRJOCGAS-UHFFFAOYSA-N

$$$$
CHEMBL1801204
     RDKit          2D

 34 38  0  0  0  0  0  0  0  0999 V2000
    3.0000   -7.7942    0.0000 C   0  0  0  0  0  0  0  0  0  0  0  0
    3.7500   -6.4952    0.0000 O   0  0  0  0  0  0  0  0  0  0  0  0
    3.0000   -5.1962    0.0000 C   0  0  0  0  0  0  0  0  0  0  0  0
    1.5000   -5.1962    0.0000 C   0  0  0  0  0  0  0  0  0  0  0  0
    0.7500   -3.8971    0.0000 C   0  0  0  0  0  0  0  0  0  0  0  0
    1.5000   -2.5981    0.0000 C   0  0  0  0  0  0  0  0  0  0  0  0
    0.7500   -1.2990    0.0000 C   0  0  0  0  0  0  0  0  0  0  0  0
    1.5000    0.0000    0.0000 C   0  0  0  0  0  0  0  0  0  0  0  0
    0.7500    1.2990    0.0000 C   0  0  0  0  0  0  0  0  0  0  0  0
   -0.7500    1.2990    0.0000 C   0  0  0  0  0  0  0  0  0  0  0  0
   -1.5000    2.5981    0.0000 C   0  0  0  0  0  0  0  0  0  0  0  0
   -0.7500    3.8971    0.0000 N   0  0  0  0  0  0  0  0  0  0  0  0
    0.7500    3.8971    0.0000 C   0  0  0  0  0  0  0  0  0  0  0  0
    1.5000    5.1962    0.0000 C   0  0  0  0  0  0  0  0  0  0  0  0
    0.7500    6.4952    0.0000 O   0  0  0  0  0  0  0  0  0  0  0  0
   -0.7500    6.4952    0.0000 C   0  0  0  0  0  0  0  0  0  0  0  0
   -1.5000    5.1962    0.0000 C   0  0  0  0  0  0  0  0  0  0  0  0
   -3.0000    5.1962    0.0000 C   0  0  0  0  0  0  0  0  0  0  0  0
   -3.0000    2.5981    0.0000 N   0  0  0  0  0  0  0  0  0  0  0  0
   -3.7500    1.2990    0.0000 C   0  0  0  0  0  0  0  0  0  0  0  0
   -5.2500    1.2990    0.0000 N   0  0  0  0  0  0  0  0  0  0  0  0
   -6.0000    2.5981    0.0000 C   0  0  0  0  0  0  0  0  0  0  0  0
   -7.5000    2.5981    0.0000 C   0  0  0  0  0  0  0  0  0  0  0  0
   -8.2500    1.2990    0.0000 O   0  0  0  0  0  0  0  0  0  0  0  0
   -7.5000   -0.0000    0.0000 C   0  0  0  0  0  0  0  0  0  0  0  0
   -6.0000   -0.0000    0.0000 C   0  0  0  0  0  0  0  0  0  0  0  0
   -5.2500   -1.2990    0.0000 C   0  0  0  0  0  0  0  0  0  0  0  0
   -3.0000    0.0000    0.0000 N   0  0  0  0  0  0  0  0  0  0  0  0
   -1.5000    0.0000    0.0000 C   0  0  0  0  0  0  0  0  0  0  0  0
   -0.7500   -1.2990    0.0000 N   0  0  0  0  0  0  0  0  0  0  0  0
    3.0000   -2.5981    0.0000 C   0  0  0  0  0  0  0  0  0  0  0  0
    3.7500   -3.8971    0.0000 C   0  0  0  0  0  0  0  0  0  0  0  0
    5.2500   -3.8971    0.0000 C   0  0  0  0  0  0  0  0  0  0  0  0
    6.0000   -2.5981    0.0000 O   0  0  0  0  0  0  0  0  0  0  0  0
  1  2  1  0
  2  3  1  0
  3  4  2  0
  4  5  1  0
  5  6  2  0
  6  7  1  0
  7  8  2  0
  8  9  1  0
  9 10  2  0
 10 11  1  0
 11 12  1  0
 12 13  1  0
 13 14  1  0
 14 15  1  0
 15 16  1  0
 16 17  1  0
 17 18  1  1
 11 19  2  0
 19 20  1  0
 20 21  1  0
 21 22  1  0
 22 23  1  0
 23 24  1  0
 24 25  1  0
 25 26  1  0
 26 27  1  1
 20 28  2  0
 28 29  1  0
 29 30  2  0
  6 31  1  0
 31 32  2  0
 32 33  1  0
 33 34  1  0
 32  3  1  0
 30  7  1  0
 29 10  1  0
 17 12  1  0
 26 21  1  0
M  END
>  <Synonyms>  (438) 
AZ-12600000|AZD 8055|AZD-8055|AZD8055

>  <Research Codes>  (438) 
AZ-12600000|AZD 8055|AZD-8055|AZD8055

>  <Phase>  (438) 
1

>  <Applicants>  (438) 
nan

>  <USAN Stem>  (438) 
nan

>  <USAN Year>  (438) 
nan

>  <USAN Stem Definition>  (438) 
nan

>  <USAN Stem Substem>  (438) 
nan

>  <First Approval>  (438) 
nan

>  <ATC Codes>  (438) 
nan

>  <Level 4 ATC Codes>  (438) 
nan

>  <Level 3 ATC Codes>  (438) 
nan

>  <Level 2 ATC Codes>  (438) 
nan

>  <Level 1 ATC Codes>  (438) 
nan

>  <Indication Class>  (438) 
nan

>  <Patent>  (438) 
nan

>  <Drug Type>  (438) 
1:Synthetic Small Molecule

>  <Passes Rule of Five>  (438) 
True

>  <First In Class>  (438) 
False

>  <Chirality>  (438) 
Single Stereoisomer

>  <Prodrug>  (438) 
False

>  <Oral>  (438) 
False

>  <Parenteral>  (438) 
False

>  <Topical>  (438) 
False

>  <Black Box>  (438) 
False

>  <Availability Type>  (438) 
Unknown

>  <Withdrawn Year>  (438) 
nan

>  <Withdrawn Reason>  (438) 
nan

>  <Withdrawn Country>  (438) 
nan

>  <Withdrawn Class>  (438) 
nan

>  <SMILES>  (438) 
COc1ccc(-c2ccc3c(N4CCOC[C@@H]4C)nc(N4CCOC[C@@H]4C)nc3n2)cc1CO

>  <InChi Key>  (438) 
KVLFRAWTRWDEDF-IRXDYDNUSA-N

$$$$
CHEMBL292687
     RDKit          2D

 13 13  0  0  0  0  0  0  0  0999 V2000
    3.7500   -1.2990    0.0000 O   0  0  0  0  0  0  0  0  0  0  0  0
    3.0000    0.0000    0.0000 N   0  0  0  0  0  4  0  0  0  0  0  0
    3.7500    1.2990    0.0000 O   0  0  0  0  0  1  0  0  0  0  0  0
    1.5000    0.0000    0.0000 C   0  0  0  0  0  0  0  0  0  0  0  0
    0.7500   -1.2990    0.0000 C   0  0  0  0  0  0  0  0  0  0  0  0
   -0.7500   -1.2990    0.0000 C   0  0  0  0  0  0  0  0  0  0  0  0
   -1.5000    0.0000    0.0000 C   0  0  0  0  0  0  0  0  0  0  0  0
   -3.0000    0.0000    0.0000 Cl  0  0  0  0  0  0  0  0  0  0  0  0
   -0.7500    1.2990    0.0000 C   0  0  0  0  0  0  0  0  0  0  0  0
   -1.5000    2.5981    0.0000 N   0  0  0  0  0  4  0  0  0  0  0  0
   -0.7500    3.8971    0.0000 O   0  0  0  0  0  0  0  0  0  0  0  0
   -3.0000    2.5981    0.0000 O   0  0  0  0  0  1  0  0  0  0  0  0
    0.7500    1.2990    0.0000 C   0  0  0  0  0  0  0  0  0  0  0  0
  1  2  2  0
  2  3  1  0
  2  4  1  0
  4  5  2  0
  5  6  1  0
  6  7  2  0
  7  8  1  0
  7  9  1  0
  9 10  1  0
 10 11  2  0
 10 12  1  0
  9 13  2  0
 13  4  1  0
M  CHG  4   2   1   3  -1  10   1  12  -1
M  END
>  <Synonyms>  (439) 
1-CHLORO-2,4-DINITROBENZENE|DINITROCHLOROBENZENE|NSC-6292

>  <Research Codes>  (439) 
NSC-6292

>  <Phase>  (439) 
1

>  <Applicants>  (439) 
nan

>  <USAN Stem>  (439) 
nan

>  <USAN Year>  (439) 
nan

>  <USAN Stem Definition>  (439) 
nan

>  <USAN Stem Substem>  (439) 
nan

>  <First Approval>  (439) 
nan

>  <ATC Codes>  (439) 
nan

>  <Level 4 ATC Codes>  (439) 
nan

>  <Level 3 ATC Codes>  (439) 
nan

>  <Level 2 ATC Codes>  (439) 
nan

>  <Level 1 ATC Codes>  (439) 
nan

>  <Indication Class>  (439) 
nan

>  <Patent>  (439) 
nan

>  <Drug Type>  (439) 
1:Synthetic Small Molecule

>  <Passes Rule of Five>  (439) 
True

>  <First In Class>  (439) 
False

>  <Chirality>  (439) 
Achiral Molecule

>  <Prodrug>  (439) 
False

>  <Oral>  (439) 
False

>  <Parenteral>  (439) 
False

>  <Topical>  (439) 
False

>  <Black Box>  (439) 
False

>  <Availability Type>  (439) 
Unknown

>  <Withdrawn Year>  (439) 
nan

>  <Withdrawn Reason>  (439) 
nan

>  <Withdrawn Country>  (439) 
nan

>  <Withdrawn Class>  (439) 
nan

>  <SMILES>  (439) 
O=[N+]([O-])c1ccc(Cl)c([N+](=O)[O-])c1

>  <InChi Key>  (439) 
VYZAHLCBVHPDDF-UHFFFAOYSA-N

$$$$
CHEMBL118722
     RDKit          2D

 21 20  0  0  0  0  0  0  0  0999 V2000
    0.0000    0.0000    0.0000 C   0  0  0  0  0  0  0  0  0  0  0  0
    1.2990    0.7500    0.0000 C   0  0  0  0  0  0  0  0  0  0  0  0
    2.5981   -0.0000    0.0000 C   0  0  0  0  0  0  0  0  0  0  0  0
    3.8971    0.7500    0.0000 C   0  0  0  0  0  0  0  0  0  0  0  0
    5.1962   -0.0000    0.0000 O   0  0  0  0  0  0  0  0  0  0  0  0
    3.8971    2.2500    0.0000 O   0  0  0  0  0  0  0  0  0  0  0  0
    5.1962    3.0000    0.0000 C   0  0  0  0  0  0  0  0  0  0  0  0
    5.1962    4.5000    0.0000 C   0  0  0  0  0  0  0  0  0  0  0  0
    6.4952    5.2500    0.0000 C   0  0  0  0  0  0  0  0  0  0  0  0
    6.4952    6.7500    0.0000 O   0  0  0  0  0  0  0  0  0  0  0  0
    7.7942    7.5000    0.0000 C   0  0  0  0  0  0  0  0  0  0  0  0
    9.0933    6.7500    0.0000 O   0  0  0  0  0  0  0  0  0  0  0  0
    7.7942    9.0000    0.0000 C   0  0  0  0  0  0  0  0  0  0  0  0
    9.0933    9.7500    0.0000 C   0  0  0  0  0  0  0  0  0  0  0  0
    9.0933   11.2500    0.0000 C   0  0  0  0  0  0  0  0  0  0  0  0
    3.8971    5.2500    0.0000 O   0  0  0  0  0  0  0  0  0  0  0  0
    3.8971    6.7500    0.0000 C   0  0  0  0  0  0  0  0  0  0  0  0
    5.1962    7.5000    0.0000 O   0  0  0  0  0  0  0  0  0  0  0  0
    2.5981    7.5000    0.0000 C   0  0  0  0  0  0  0  0  0  0  0  0
    2.5981    9.0000    0.0000 C   0  0  0  0  0  0  0  0  0  0  0  0
    1.2990    9.7500    0.0000 C   0  0  0  0  0  0  0  0  0  0  0  0
  1  2  1  0
  2  3  1  0
  3  4  1  0
  4  5  2  0
  4  6  1  0
  6  7  1  0
  7  8  1  0
  8  9  1  0
  9 10  1  0
 10 11  1  0
 11 12  2  0
 11 13  1  0
 13 14  1  0
 14 15  1  0
  8 16  1  0
 16 17  1  0
 17 18  2  0
 17 19  1  0
 19 20  1  0
 20 21  1  0
M  END
>  <Synonyms>  (440) 
FEMA NO. 2223|NSC-661583|TRIBUTYRIN

>  <Research Codes>  (440) 
FEMA NO. 2223|NSC-661583

>  <Phase>  (440) 
1

>  <Applicants>  (440) 
nan

>  <USAN Stem>  (440) 
nan

>  <USAN Year>  (440) 
nan

>  <USAN Stem Definition>  (440) 
nan

>  <USAN Stem Substem>  (440) 
nan

>  <First Approval>  (440) 
nan

>  <ATC Codes>  (440) 
nan

>  <Level 4 ATC Codes>  (440) 
nan

>  <Level 3 ATC Codes>  (440) 
nan

>  <Level 2 ATC Codes>  (440) 
nan

>  <Level 1 ATC Codes>  (440) 
nan

>  <Indication Class>  (440) 
nan

>  <Patent>  (440) 
nan

>  <Drug Type>  (440) 
1:Synthetic Small Molecule

>  <Passes Rule of Five>  (440) 
True

>  <First In Class>  (440) 
False

>  <Chirality>  (440) 
Achiral Molecule

>  <Prodrug>  (440) 
False

>  <Oral>  (440) 
False

>  <Parenteral>  (440) 
False

>  <Topical>  (440) 
False

>  <Black Box>  (440) 
False

>  <Availability Type>  (440) 
Unknown

>  <Withdrawn Year>  (440) 
nan

>  <Withdrawn Reason>  (440) 
nan

>  <Withdrawn Country>  (440) 
nan

>  <Withdrawn Class>  (440) 
nan

>  <SMILES>  (440) 
CCCC(=O)OCC(COC(=O)CCC)OC(=O)CCC

>  <InChi Key>  (440) 
UYXTWWCETRIEDR-UHFFFAOYSA-N

$$$$
CHEMBL96
     RDKit          2D

  7  6  0  0  0  0  0  0  0  0999 V2000
   -1.2990    0.7500    0.0000 N   0  0  0  0  0  0  0  0  0  0  0  0
    0.0000    0.0000    0.0000 C   0  0  0  0  0  0  0  0  0  0  0  0
    1.2990    0.7500    0.0000 C   0  0  0  0  0  0  0  0  0  0  0  0
    2.5981   -0.0000    0.0000 C   0  0  0  0  0  0  0  0  0  0  0  0
    3.8971    0.7500    0.0000 C   0  0  0  0  0  0  0  0  0  0  0  0
    5.1962   -0.0000    0.0000 O   0  0  0  0  0  0  0  0  0  0  0  0
    3.8971    2.2500    0.0000 O   0  0  0  0  0  0  0  0  0  0  0  0
  1  2  1  0
  2  3  1  0
  3  4  1  0
  4  5  1  0
  5  6  2  0
  5  7  1  0
M  END
>  <Synonyms>  (441) 
.GAMMA.-AMINOBUTYRIC ACID|AMINOBUTYRIC ACID|GAMMA-AMINOBUTYRIC ACID|NSC-27418

>  <Research Codes>  (441) 
NSC-27418

>  <Phase>  (441) 
1

>  <Applicants>  (441) 
nan

>  <USAN Stem>  (441) 
nan

>  <USAN Year>  (441) 
nan

>  <USAN Stem Definition>  (441) 
nan

>  <USAN Stem Substem>  (441) 
nan

>  <First Approval>  (441) 
nan

>  <ATC Codes>  (441) 
N03AG03

>  <Level 4 ATC Codes>  (441) 
N03AG - Fatty acid derivatives

>  <Level 3 ATC Codes>  (441) 
N03A - ANTIEPILEPTICS

>  <Level 2 ATC Codes>  (441) 
N03 - ANTIEPILEPTICS

>  <Level 1 ATC Codes>  (441) 
N - NERVOUS SYSTEM

>  <Indication Class>  (441) 
nan

>  <Patent>  (441) 
nan

>  <Drug Type>  (441) 
1:Synthetic Small Molecule

>  <Passes Rule of Five>  (441) 
True

>  <First In Class>  (441) 
False

>  <Chirality>  (441) 
Achiral Molecule

>  <Prodrug>  (441) 
False

>  <Oral>  (441) 
False

>  <Parenteral>  (441) 
False

>  <Topical>  (441) 
False

>  <Black Box>  (441) 
False

>  <Availability Type>  (441) 
Unknown

>  <Withdrawn Year>  (441) 
nan

>  <Withdrawn Reason>  (441) 
nan

>  <Withdrawn Country>  (441) 
nan

>  <Withdrawn Class>  (441) 
nan

>  <SMILES>  (441) 
NCCCC(=O)O

>  <InChi Key>  (441) 
BTCSSZJGUNDROE-UHFFFAOYSA-N

$$$$
CHEMBL269277
     RDKit          2D

 33 37  0  0  0  0  0  0  0  0999 V2000
    3.5260   -1.2990    0.0000 C   0  0  0  0  0  0  0  0  0  0  0  0
    2.7760    0.0000    0.0000 C   0  0  0  0  0  0  0  0  0  0  0  0
    3.5260    1.2990    0.0000 C   0  0  0  0  0  0  0  0  0  0  0  0
    1.2760    0.0000    0.0000 C   0  0  0  0  0  0  0  0  0  0  0  0
    0.3943    1.2135    0.0000 C   0  0  0  0  0  0  0  0  0  0  0  0
   -1.0323    0.7500    0.0000 C   0  0  0  0  0  0  0  0  0  0  0  0
   -1.0323   -0.7500    0.0000 C   0  0  0  0  0  0  0  0  0  0  0  0
   -2.4026   -0.1399    0.0000 C   0  0  0  0  0  0  0  0  0  0  0  0
   -3.6161   -1.0216    0.0000 O   0  0  0  0  0  0  0  0  0  0  0  0
   -2.5594    1.3519    0.0000 O   0  0  0  0  0  0  0  0  0  0  0  0
   -2.1470   -1.7537    0.0000 C   0  0  0  0  0  0  0  0  0  0  0  0
   -1.8351   -3.2209    0.0000 C   0  0  0  0  0  0  0  0  0  0  0  0
   -0.4086   -3.6844    0.0000 C   0  0  0  0  0  0  0  0  0  0  0  0
   -1.2147   -4.2489    0.0000 C   0  0  0  0  0  0  0  0  0  0  0  0
    0.7062   -2.6807    0.0000 C   0  0  0  0  0  0  0  0  0  0  0  0
    2.1328   -3.1443    0.0000 C   0  0  0  0  0  0  0  0  0  0  0  0
    2.4446   -4.6115    0.0000 C   0  0  0  0  0  0  0  0  0  0  0  0
    1.3299   -5.6152    0.0000 C   0  0  0  0  0  0  0  0  0  0  0  0
    1.6418   -7.0824    0.0000 C   0  0  0  0  0  0  0  0  0  0  0  0
    2.7565   -6.0787    0.0000 C   0  0  0  0  0  0  0  0  0  0  0  0
    3.0684   -7.5459    0.0000 C   0  0  0  0  0  0  0  0  0  0  0  0
    3.3802   -9.0132    0.0000 C   0  0  0  0  0  0  0  0  0  0  0  0
    2.2655  -10.0169    0.0000 C   0  0  0  0  0  0  0  0  0  0  0  0
    2.5774  -11.4841    0.0000 O   0  0  0  0  0  0  0  0  0  0  0  0
    0.8389   -9.5533    0.0000 C   0  0  0  0  0  0  0  0  0  0  0  0
   -0.6602   -9.6057    0.0000 C   0  0  0  0  0  0  0  0  0  0  0  0
    0.6302  -11.0387    0.0000 C   0  0  0  0  0  0  0  0  0  0  0  0
    0.5271   -8.0861    0.0000 C   0  0  0  0  0  0  0  0  0  0  0  0
   -0.8995   -7.6226    0.0000 C   0  0  0  0  0  0  0  0  0  0  0  0
   -1.2114   -6.1554    0.0000 C   0  0  0  0  0  0  0  0  0  0  0  0
   -0.0967   -5.1517    0.0000 C   0  0  0  0  0  0  0  0  0  0  0  0
   -1.0628   -4.9639    0.0000 C   0  0  0  0  0  0  0  0  0  0  0  0
    0.3943   -1.2135    0.0000 C   0  0  0  0  0  0  0  0  0  0  0  0
  1  2  2  0
  2  3  1  0
  4  2  1  1
  4  5  1  0
  5  6  1  0
  6  7  1  0
  7  8  1  6
  8  9  2  0
  8 10  1  0
  7 11  1  0
 11 12  1  0
 12 13  1  0
 13 14  1  1
 13 15  1  0
 15 16  1  1
 16 17  1  0
 18 17  1  6
 18 19  1  0
 19 20  1  6
 19 21  1  0
 21 22  1  0
 22 23  1  0
 23 24  1  6
 23 25  1  0
 25 26  1  0
 25 27  1  0
 25 28  1  0
 28 29  1  6
 29 30  1  0
 30 31  1  0
 31 32  1  6
 15 33  1  0
 33  4  1  6
 33  7  1  0
 31 13  1  0
 31 18  1  0
 28 19  1  0
M  END
>  <Synonyms>  (442) 
ALS-357|BETULINIC ACID|NSC-113090|NSC-677578

>  <Research Codes>  (442) 
ALS-357|NSC-113090|NSC-677578

>  <Phase>  (442) 
1

>  <Applicants>  (442) 
nan

>  <USAN Stem>  (442) 
nan

>  <USAN Year>  (442) 
nan

>  <USAN Stem Definition>  (442) 
nan

>  <USAN Stem Substem>  (442) 
nan

>  <First Approval>  (442) 
nan

>  <ATC Codes>  (442) 
nan

>  <Level 4 ATC Codes>  (442) 
nan

>  <Level 3 ATC Codes>  (442) 
nan

>  <Level 2 ATC Codes>  (442) 
nan

>  <Level 1 ATC Codes>  (442) 
nan

>  <Indication Class>  (442) 
nan

>  <Patent>  (442) 
nan

>  <Drug Type>  (442) 
7:Natural Product-derived

>  <Passes Rule of Five>  (442) 
False

>  <First In Class>  (442) 
False

>  <Chirality>  (442) 
Single Stereoisomer

>  <Prodrug>  (442) 
False

>  <Oral>  (442) 
False

>  <Parenteral>  (442) 
False

>  <Topical>  (442) 
False

>  <Black Box>  (442) 
False

>  <Availability Type>  (442) 
Unknown

>  <Withdrawn Year>  (442) 
nan

>  <Withdrawn Reason>  (442) 
nan

>  <Withdrawn Country>  (442) 
nan

>  <Withdrawn Class>  (442) 
nan

>  <SMILES>  (442) 
C=C(C)[C@@H]1CC[C@]2(C(=O)O)CC[C@]3(C)[C@H](CC[C@@H]4[C@@]5(C)CC[C@H](O)C(C)(C)[C@@H]5CC[C@]43C)[C@@H]12

>  <InChi Key>  (442) 
QGJZLNKBHJESQX-FZFNOLFKSA-N

$$$$
CHEMBL3330650
     RDKit          2D

 25 27  0  0  0  0  0  0  0  0999 V2000
   -4.3764    3.7611    0.0000 O   0  0  0  0  0  0  0  0  0  0  0  0
   -2.9499    4.2246    0.0000 C   0  0  0  0  0  0  0  0  0  0  0  0
   -2.6380    5.6918    0.0000 N   0  0  0  0  0  0  0  0  0  0  0  0
   -3.7527    6.6955    0.0000 O   0  0  0  0  0  0  0  0  0  0  0  0
   -3.4408    8.1628    0.0000 C   0  0  0  0  0  0  0  0  0  0  0  0
   -4.5556    9.1664    0.0000 C   0  0  0  0  0  0  0  0  0  0  0  0
   -4.2437   10.6337    0.0000 O   0  0  0  0  0  0  0  0  0  0  0  0
   -1.8351    3.2209    0.0000 C   0  0  0  0  0  0  0  0  0  0  0  0
   -0.4086    3.6844    0.0000 C   0  0  0  0  0  0  0  0  0  0  0  0
    0.7062    2.6807    0.0000 C   0  0  0  0  0  0  0  0  0  0  0  0
    0.3943    1.2135    0.0000 C   0  0  0  0  0  0  0  0  0  0  0  0
    1.2760    0.0000    0.0000 C   0  0  0  0  0  0  0  0  0  0  0  0
    0.3943   -1.2135    0.0000 N   0  0  0  0  0  0  0  0  0  0  0  0
   -1.0323   -0.7500    0.0000 C   0  0  0  0  0  0  0  0  0  0  0  0
   -1.0323    0.7500    0.0000 N   0  0  0  0  0  0  0  0  0  0  0  0
   -2.1470    1.7537    0.0000 C   0  0  0  0  0  0  0  0  0  0  0  0
   -3.5736    1.2902    0.0000 N   0  0  0  0  0  0  0  0  0  0  0  0
   -3.8855   -0.1771    0.0000 C   0  0  0  0  0  0  0  0  0  0  0  0
   -2.7707   -1.1807    0.0000 C   0  0  0  0  0  0  0  0  0  0  0  0
   -3.0826   -2.6480    0.0000 C   0  0  0  0  0  0  0  0  0  0  0  0
   -4.5092   -3.1115    0.0000 C   0  0  0  0  0  0  0  0  0  0  0  0
   -4.8211   -4.5787    0.0000 I   0  0  0  0  0  0  0  0  0  0  0  0
   -5.6239   -2.1078    0.0000 C   0  0  0  0  0  0  0  0  0  0  0  0
   -5.3120   -0.6406    0.0000 C   0  0  0  0  0  0  0  0  0  0  0  0
   -6.4268    0.3631    0.0000 F   0  0  0  0  0  0  0  0  0  0  0  0
  1  2  2  0
  2  3  1  0
  3  4  1  0
  4  5  1  0
  5  6  1  0
  6  7  1  0
  2  8  1  0
  8  9  1  0
  9 10  2  0
 10 11  1  0
 11 12  2  0
 12 13  1  0
 13 14  2  0
 14 15  1  0
 15 16  1  0
 16 17  1  0
 17 18  1  0
 18 19  2  0
 19 20  1  0
 20 21  2  0
 21 22  1  0
 21 23  1  0
 23 24  2  0
 24 25  1  0
 16  8  2  0
 24 18  1  0
 15 11  1  0
M  END
>  <Synonyms>  (443) 
GDC-0623|RG-7420

>  <Research Codes>  (443) 
nan

>  <Phase>  (443) 
1

>  <Applicants>  (443) 
nan

>  <USAN Stem>  (443) 
nan

>  <USAN Year>  (443) 
nan

>  <USAN Stem Definition>  (443) 
nan

>  <USAN Stem Substem>  (443) 
nan

>  <First Approval>  (443) 
nan

>  <ATC Codes>  (443) 
nan

>  <Level 4 ATC Codes>  (443) 
nan

>  <Level 3 ATC Codes>  (443) 
nan

>  <Level 2 ATC Codes>  (443) 
nan

>  <Level 1 ATC Codes>  (443) 
nan

>  <Indication Class>  (443) 
nan

>  <Patent>  (443) 
nan

>  <Drug Type>  (443) 
1:Synthetic Small Molecule

>  <Passes Rule of Five>  (443) 
True

>  <First In Class>  (443) 
False

>  <Chirality>  (443) 
Achiral Molecule

>  <Prodrug>  (443) 
False

>  <Oral>  (443) 
False

>  <Parenteral>  (443) 
False

>  <Topical>  (443) 
False

>  <Black Box>  (443) 
False

>  <Availability Type>  (443) 
Unknown

>  <Withdrawn Year>  (443) 
nan

>  <Withdrawn Reason>  (443) 
nan

>  <Withdrawn Country>  (443) 
nan

>  <Withdrawn Class>  (443) 
nan

>  <SMILES>  (443) 
O=C(NOCCO)c1ccc2cncn2c1Nc1ccc(I)cc1F

>  <InChi Key>  (443) 
RFWVETIZUQEJEF-UHFFFAOYSA-N

$$$$
CHEMBL221692
     RDKit          2D

 30 34  0  0  0  0  0  0  0  0999 V2000
    5.2500  -11.6913    0.0000 F   0  0  0  0  0  0  0  0  0  0  0  0
    6.0000  -10.3923    0.0000 C   0  0  0  0  0  0  0  0  0  0  0  0
    5.2500   -9.0933    0.0000 C   0  0  0  0  0  0  0  0  0  0  0  0
    6.0000   -7.7942    0.0000 C   0  0  0  0  0  0  0  0  0  0  0  0
    7.5000   -7.7942    0.0000 C   0  0  0  0  0  0  0  0  0  0  0  0
    8.2500   -6.4952    0.0000 C   0  0  0  0  0  0  0  0  0  0  0  0
    9.7500   -6.4952    0.0000 C   0  0  0  0  0  0  0  0  0  0  0  0
   10.5000   -5.1962    0.0000 N   0  0  0  0  0  0  0  0  0  0  0  0
    9.7500   -3.8971    0.0000 C   0  0  0  0  0  0  0  0  0  0  0  0
    8.2500   -3.8971    0.0000 C   0  0  0  0  0  0  0  0  0  0  0  0
    7.5000   -2.5981    0.0000 C   0  0  0  0  0  0  0  0  0  0  0  0
    6.0000   -2.5981    0.0000 N   0  0  0  0  0  0  0  0  0  0  0  0
    5.2500   -1.2990    0.0000 C   0  0  0  0  0  0  0  0  0  0  0  0
    3.7500   -1.2990    0.0000 C   0  0  0  0  0  0  0  0  0  0  0  0
    3.0000   -2.5981    0.0000 N   0  0  0  0  0  0  0  0  0  0  0  0
    1.5000   -2.5981    0.0000 C   0  0  0  0  0  0  0  0  0  0  0  0
    0.7500   -3.8971    0.0000 C   0  0  0  0  0  0  0  0  0  0  0  0
   -0.7500   -3.8971    0.0000 C   0  0  0  0  0  0  0  0  0  0  0  0
   -1.5000   -2.5981    0.0000 C   0  0  0  0  0  0  0  0  0  0  0  0
   -0.7500   -1.2990    0.0000 C   0  0  0  0  0  0  0  0  0  0  0  0
    0.7500   -1.2990    0.0000 C   0  0  0  0  0  0  0  0  0  0  0  0
    1.5000    0.0000    0.0000 O   0  0  0  0  0  0  0  0  0  0  0  0
    0.7500    1.2990    0.0000 C   0  0  0  0  0  0  0  0  0  0  0  0
   -0.7500    1.2990    0.0000 C   0  0  0  0  0  0  0  0  0  0  0  0
   -1.5000    0.0000    0.0000 O   0  0  0  0  0  0  0  0  0  0  0  0
    3.7500   -3.8971    0.0000 C   0  0  0  0  0  0  0  0  0  0  0  0
    5.2500   -3.8971    0.0000 C   0  0  0  0  0  0  0  0  0  0  0  0
    7.5000   -5.1962    0.0000 C   0  0  0  0  0  0  0  0  0  0  0  0
    8.2500   -9.0933    0.0000 C   0  0  0  0  0  0  0  0  0  0  0  0
    7.5000  -10.3923    0.0000 C   0  0  0  0  0  0  0  0  0  0  0  0
  1  2  1  0
  2  3  2  0
  3  4  1  0
  4  5  2  0
  5  6  1  0
  6  7  2  0
  7  8  1  0
  8  9  2  0
  9 10  1  0
 10 11  1  0
 11 12  1  0
 12 13  1  0
 13 14  1  0
 14 15  1  0
 15 16  1  0
 16 17  2  0
 17 18  1  0
 18 19  2  0
 19 20  1  0
 20 21  2  0
 21 22  1  0
 22 23  1  0
 23 24  1  0
 24 25  1  0
 15 26  1  0
 26 27  1  0
 10 28  2  0
  5 29  1  0
 29 30  2  0
 30  2  1  0
 28  6  1  0
 27 12  1  0
 21 16  1  0
 25 20  1  0
M  END
>  <Synonyms>  (444) 
ADOPRAZINE|Adoprazine|SLV-313

>  <Research Codes>  (444) 
SLV-313

>  <Phase>  (444) 
1

>  <Applicants>  (444) 
nan

>  <USAN Stem>  (444) 
nan

>  <USAN Year>  (444) 
nan

>  <USAN Stem Definition>  (444) 
nan

>  <USAN Stem Substem>  (444) 
nan

>  <First Approval>  (444) 
nan

>  <ATC Codes>  (444) 
nan

>  <Level 4 ATC Codes>  (444) 
nan

>  <Level 3 ATC Codes>  (444) 
nan

>  <Level 2 ATC Codes>  (444) 
nan

>  <Level 1 ATC Codes>  (444) 
nan

>  <Indication Class>  (444) 
nan

>  <Patent>  (444) 
nan

>  <Drug Type>  (444) 
1:Synthetic Small Molecule

>  <Passes Rule of Five>  (444) 
True

>  <First In Class>  (444) 
False

>  <Chirality>  (444) 
Achiral Molecule

>  <Prodrug>  (444) 
False

>  <Oral>  (444) 
False

>  <Parenteral>  (444) 
False

>  <Topical>  (444) 
False

>  <Black Box>  (444) 
False

>  <Availability Type>  (444) 
Unknown

>  <Withdrawn Year>  (444) 
nan

>  <Withdrawn Reason>  (444) 
nan

>  <Withdrawn Country>  (444) 
nan

>  <Withdrawn Class>  (444) 
nan

>  <SMILES>  (444) 
Fc1ccc(-c2cncc(CN3CCN(c4cccc5c4OCCO5)CC3)c2)cc1

>  <InChi Key>  (444) 
IUVSEUFHPNITEQ-UHFFFAOYSA-N

$$$$
CHEMBL3545083
     RDKit          2D

 40 45  0  0  0  0  0  0  0  0999 V2000
  -16.2539   -5.9537    0.0000 C   0  0  0  0  0  0  0  0  0  0  0  0
  -15.3722   -7.1672    0.0000 O   0  0  0  0  0  0  0  0  0  0  0  0
  -13.8805   -7.0104    0.0000 C   0  0  0  0  0  0  0  0  0  0  0  0
  -12.9988   -8.2240    0.0000 C   0  0  0  0  0  0  0  0  0  0  0  0
  -11.5070   -8.0672    0.0000 N   0  0  0  0  0  0  0  0  0  0  0  0
  -10.8969   -6.6969    0.0000 C   0  0  0  0  0  0  0  0  0  0  0  0
   -9.4051   -6.5401    0.0000 C   0  0  0  0  0  0  0  0  0  0  0  0
   -8.5234   -7.7536    0.0000 N   0  0  0  0  0  0  0  0  0  0  0  0
   -7.0317   -7.5968    0.0000 C   0  0  0  0  0  0  0  0  0  0  0  0
   -6.4216   -6.2265    0.0000 C   0  0  0  0  0  0  0  0  0  0  0  0
   -4.9298   -6.0697    0.0000 C   0  0  0  0  0  0  0  0  0  0  0  0
   -4.3197   -4.6994    0.0000 C   0  0  0  0  0  0  0  0  0  0  0  0
   -5.2013   -3.4858    0.0000 C   0  0  0  0  0  0  0  0  0  0  0  0
   -4.5912   -2.1155    0.0000 C   0  0  0  0  0  0  0  0  0  0  0  0
   -5.3412   -0.8165    0.0000 N   0  0  0  0  0  0  0  0  0  0  0  0
   -4.3375    0.2982    0.0000 N   0  0  0  0  0  0  0  0  0  0  0  0
   -2.9672   -0.3119    0.0000 C   0  0  0  0  0  0  0  0  0  0  0  0
   -3.1240   -1.8037    0.0000 C   0  0  0  0  0  0  0  0  0  0  0  0
   -1.7537   -2.4138    0.0000 C   0  0  0  0  0  0  0  0  0  0  0  0
   -1.4418   -3.8810    0.0000 O   0  0  0  0  0  0  0  0  0  0  0  0
   -0.7500   -1.2990    0.0000 C   0  0  0  0  0  0  0  0  0  0  0  0
    0.7500   -1.2990    0.0000 C   0  0  0  0  0  0  0  0  0  0  0  0
    1.5000   -2.5981    0.0000 N   0  0  0  0  0  0  0  0  0  0  0  0
    3.0000   -2.5981    0.0000 C   0  0  0  0  0  0  0  0  0  0  0  0
    3.7500   -1.2990    0.0000 O   0  0  0  0  0  0  0  0  0  0  0  0
    3.7500   -3.8971    0.0000 N   0  0  0  0  0  0  0  0  0  0  0  0
    5.2500   -3.8971    0.0000 N   0  0  0  0  0  0  0  0  0  0  0  0
    6.0000   -5.1962    0.0000 C   0  0  0  0  0  0  0  0  0  0  0  0
    7.5000   -5.1962    0.0000 C   0  0  0  0  0  0  0  0  0  0  0  0
    8.2500   -3.8971    0.0000 O   0  0  0  0  0  0  0  0  0  0  0  0
    7.5000   -2.5981    0.0000 C   0  0  0  0  0  0  0  0  0  0  0  0
    6.0000   -2.5981    0.0000 C   0  0  0  0  0  0  0  0  0  0  0  0
    1.5000    0.0000    0.0000 C   0  0  0  0  0  0  0  0  0  0  0  0
    0.7500    1.2990    0.0000 C   0  0  0  0  0  0  0  0  0  0  0  0
   -0.7500    1.2990    0.0000 C   0  0  0  0  0  0  0  0  0  0  0  0
   -1.5000    0.0000    0.0000 C   0  0  0  0  0  0  0  0  0  0  0  0
   -6.6931   -3.6426    0.0000 C   0  0  0  0  0  0  0  0  0  0  0  0
   -7.3032   -5.0129    0.0000 C   0  0  0  0  0  0  0  0  0  0  0  0
   -9.1335   -9.1239    0.0000 C   0  0  0  0  0  0  0  0  0  0  0  0
  -10.6253   -9.2807    0.0000 C   0  0  0  0  0  0  0  0  0  0  0  0
  1  2  1  0
  2  3  1  0
  3  4  1  0
  4  5  1  0
  5  6  1  0
  6  7  1  0
  7  8  1  0
  8  9  1  0
  9 10  1  0
 10 11  2  0
 11 12  1  0
 12 13  2  0
 13 14  1  0
 14 15  1  0
 15 16  1  0
 16 17  2  0
 17 18  1  0
 18 19  1  0
 19 20  2  0
 19 21  1  0
 21 22  2  0
 22 23  1  0
 23 24  1  0
 24 25  2  0
 24 26  1  0
 26 27  1  0
 27 28  1  0
 28 29  1  0
 29 30  1  0
 30 31  1  0
 31 32  1  0
 22 33  1  0
 33 34  2  0
 34 35  1  0
 35 36  2  0
 13 37  1  0
 37 38  2  0
  8 39  1  0
 39 40  1  0
 40  5  1  0
 38 10  1  0
 18 14  2  0
 36 21  1  0
 36 17  1  0
 32 27  1  0
M  END
>  <Synonyms>  (445) 
RGB 286638|RGB-286638

>  <Research Codes>  (445) 
RGB 286638

>  <Phase>  (445) 
1

>  <Applicants>  (445) 
nan

>  <USAN Stem>  (445) 
nan

>  <USAN Year>  (445) 
nan

>  <USAN Stem Definition>  (445) 
nan

>  <USAN Stem Substem>  (445) 
nan

>  <First Approval>  (445) 
nan

>  <ATC Codes>  (445) 
nan

>  <Level 4 ATC Codes>  (445) 
nan

>  <Level 3 ATC Codes>  (445) 
nan

>  <Level 2 ATC Codes>  (445) 
nan

>  <Level 1 ATC Codes>  (445) 
nan

>  <Indication Class>  (445) 
nan

>  <Patent>  (445) 
nan

>  <Drug Type>  (445) 
1:Synthetic Small Molecule

>  <Passes Rule of Five>  (445) 
False

>  <First In Class>  (445) 
False

>  <Chirality>  (445) 
Achiral Molecule

>  <Prodrug>  (445) 
False

>  <Oral>  (445) 
False

>  <Parenteral>  (445) 
False

>  <Topical>  (445) 
False

>  <Black Box>  (445) 
False

>  <Availability Type>  (445) 
Unknown

>  <Withdrawn Year>  (445) 
nan

>  <Withdrawn Reason>  (445) 
nan

>  <Withdrawn Country>  (445) 
nan

>  <Withdrawn Class>  (445) 
nan

>  <SMILES>  (445) 
COCCN1CCN(Cc2ccc(-c3n[nH]c4c3C(=O)c3c(NC(=O)NN5CCOCC5)cccc3-4)cc2)CC1

>  <InChi Key>  (445) 
XLSYZSRXVVCHLS-UHFFFAOYSA-N

$$$$
CHEMBL2333941
     RDKit          2D

 22 24  0  0  0  0  0  0  0  0999 V2000
    2.6491   -1.6339    0.0000 C   0  0  0  0  0  0  0  0  0  0  0  0
    1.5000   -2.5981    0.0000 C   0  0  0  0  0  0  0  0  0  0  0  0
    0.7500   -1.2990    0.0000 C   0  0  0  0  0  0  0  0  0  0  0  0
    1.5000    0.0000    0.0000 C   0  0  0  0  0  0  0  0  0  0  0  0
    0.7500    1.2990    0.0000 C   0  0  0  0  0  0  0  0  0  0  0  0
    1.5000    2.5981    0.0000 C   0  0  0  0  0  0  0  0  0  0  0  0
    3.0000    2.5981    0.0000 C   0  0  0  0  0  0  0  0  0  0  0  0
    3.7500    3.8971    0.0000 N   0  0  0  0  0  0  0  0  0  0  0  0
    3.0000    5.1962    0.0000 C   0  0  0  0  0  0  0  0  0  0  0  0
    1.5000    5.1962    0.0000 N   0  0  0  0  0  0  0  0  0  0  0  0
    0.7500    3.8971    0.0000 C   0  0  0  0  0  0  0  0  0  0  0  0
   -0.7500    1.2990    0.0000 C   0  0  0  0  0  0  0  0  0  0  0  0
   -1.5000    2.5981    0.0000 F   0  0  0  0  0  0  0  0  0  0  0  0
   -1.5000    0.0000    0.0000 C   0  0  0  0  0  0  0  0  0  0  0  0
   -0.7500   -1.2990    0.0000 C   0  0  0  0  0  0  0  0  0  0  0  0
   -1.5000   -2.5981    0.0000 F   0  0  0  0  0  0  0  0  0  0  0  0
    0.0905   -3.1111    0.0000 C   0  0  0  0  0  0  0  0  0  0  0  0
   -0.1700   -4.5883    0.0000 C   0  0  0  0  0  0  0  0  0  0  0  0
    0.9791   -5.5525    0.0000 S   0  0  0  0  0  0  0  0  0  0  0  0
    2.3886   -5.0395    0.0000 C   0  0  0  0  0  0  0  0  0  0  0  0
    3.5377   -6.0037    0.0000 N   0  0  0  0  0  0  0  0  0  0  0  0
    2.6491   -3.5623    0.0000 N   0  0  0  0  0  0  0  0  0  0  0  0
  2  1  1  6
  2  3  1  0
  3  4  2  0
  4  5  1  0
  5  6  1  0
  6  7  2  0
  7  8  1  0
  8  9  2  0
  9 10  1  0
 10 11  2  0
  5 12  2  0
 12 13  1  0
 12 14  1  0
 14 15  2  0
 15 16  1  0
  2 17  1  0
 17 18  1  0
 18 19  1  0
 19 20  1  0
 20 21  2  0
 20 22  1  0
 22  2  1  0
 15  3  1  0
 11  6  1  0
M  END
>  <Synonyms>  (446) 
J3.079.793K|LY-2811376|LY2811376

>  <Research Codes>  (446) 
J3.079.793K|LY2811376

>  <Phase>  (446) 
1

>  <Applicants>  (446) 
nan

>  <USAN Stem>  (446) 
nan

>  <USAN Year>  (446) 
nan

>  <USAN Stem Definition>  (446) 
nan

>  <USAN Stem Substem>  (446) 
nan

>  <First Approval>  (446) 
nan

>  <ATC Codes>  (446) 
nan

>  <Level 4 ATC Codes>  (446) 
nan

>  <Level 3 ATC Codes>  (446) 
nan

>  <Level 2 ATC Codes>  (446) 
nan

>  <Level 1 ATC Codes>  (446) 
nan

>  <Indication Class>  (446) 
nan

>  <Patent>  (446) 
nan

>  <Drug Type>  (446) 
1:Synthetic Small Molecule

>  <Passes Rule of Five>  (446) 
True

>  <First In Class>  (446) 
False

>  <Chirality>  (446) 
Single Stereoisomer

>  <Prodrug>  (446) 
False

>  <Oral>  (446) 
False

>  <Parenteral>  (446) 
False

>  <Topical>  (446) 
False

>  <Black Box>  (446) 
False

>  <Availability Type>  (446) 
Unknown

>  <Withdrawn Year>  (446) 
nan

>  <Withdrawn Reason>  (446) 
nan

>  <Withdrawn Country>  (446) 
nan

>  <Withdrawn Class>  (446) 
nan

>  <SMILES>  (446) 
C[C@@]1(c2cc(-c3cncnc3)c(F)cc2F)CCSC(N)=N1

>  <InChi Key>  (446) 
MJQMRGWYPNIERM-HNNXBMFYSA-N

$$$$
CHEMBL1614710
     RDKit          2D

 31 34  0  0  0  0  0  0  0  0999 V2000
   -4.2009   -6.8491    0.0000 O   0  0  0  0  0  0  0  0  0  0  0  0
   -5.6682   -6.5372    0.0000 C   0  0  0  0  0  0  0  0  0  0  0  0
   -6.6718   -7.6519    0.0000 N   0  0  0  0  0  0  0  0  0  0  0  0
   -6.2083   -9.0785    0.0000 C   0  0  0  0  0  0  0  0  0  0  0  0
   -7.2120  -10.1932    0.0000 C   0  0  0  0  0  0  0  0  0  0  0  0
   -6.7485  -11.6198    0.0000 C   0  0  0  0  0  0  0  0  0  0  0  0
   -5.2813  -11.9317    0.0000 C   0  0  0  0  0  0  0  0  0  0  0  0
   -4.8177  -13.3583    0.0000 O   0  0  0  0  0  0  0  0  0  0  0  0
   -5.8214  -14.4730    0.0000 C   0  0  0  0  0  0  0  0  0  0  0  0
   -6.8251  -15.5877    0.0000 F   0  0  0  0  0  0  0  0  0  0  0  0
   -4.7067  -15.4767    0.0000 F   0  0  0  0  0  0  0  0  0  0  0  0
   -6.9362  -13.4693    0.0000 F   0  0  0  0  0  0  0  0  0  0  0  0
   -4.2776  -10.8170    0.0000 C   0  0  0  0  0  0  0  0  0  0  0  0
   -4.7411   -9.3904    0.0000 C   0  0  0  0  0  0  0  0  0  0  0  0
   -6.1317   -5.1106    0.0000 C   0  0  0  0  0  0  0  0  0  0  0  0
   -7.5583   -4.6471    0.0000 S   0  0  0  0  0  0  0  0  0  0  0  0
   -7.5583   -3.1471    0.0000 C   0  0  0  0  0  0  0  0  0  0  0  0
   -6.1317   -2.6836    0.0000 C   0  0  0  0  0  0  0  0  0  0  0  0
   -5.2500   -3.8971    0.0000 C   0  0  0  0  0  0  0  0  0  0  0  0
   -3.7500   -3.8971    0.0000 N   0  0  0  0  0  0  0  0  0  0  0  0
   -3.0000   -2.5981    0.0000 C   0  0  0  0  0  0  0  0  0  0  0  0
   -1.5000   -2.5981    0.0000 C   0  0  0  0  0  0  0  0  0  0  0  0
   -0.7500   -3.8971    0.0000 C   0  0  0  0  0  0  0  0  0  0  0  0
    0.7500   -3.8971    0.0000 C   0  0  0  0  0  0  0  0  0  0  0  0
    1.5000   -2.5981    0.0000 N   0  0  0  0  0  0  0  0  0  0  0  0
    0.7500   -1.2990    0.0000 C   0  0  0  0  0  0  0  0  0  0  0  0
    1.5000    0.0000    0.0000 C   0  0  0  0  0  0  0  0  0  0  0  0
    0.7500    1.2990    0.0000 C   0  0  0  0  0  0  0  0  0  0  0  0
   -0.7500    1.2990    0.0000 C   0  0  0  0  0  0  0  0  0  0  0  0
   -1.5000    0.0000    0.0000 C   0  0  0  0  0  0  0  0  0  0  0  0
   -0.7500   -1.2990    0.0000 C   0  0  0  0  0  0  0  0  0  0  0  0
  1  2  2  0
  2  3  1  0
  3  4  1  0
  4  5  2  0
  5  6  1  0
  6  7  2  0
  7  8  1  0
  8  9  1  0
  9 10  1  0
  9 11  1  0
  9 12  1  0
  7 13  1  0
 13 14  2  0
  2 15  1  0
 15 16  1  0
 16 17  1  0
 17 18  2  0
 18 19  1  0
 19 20  1  0
 20 21  1  0
 21 22  1  0
 22 23  2  0
 23 24  1  0
 24 25  2  0
 25 26  1  0
 26 27  2  0
 27 28  1  0
 28 29  2  0
 29 30  1  0
 30 31  2  0
 14  4  1  0
 19 15  2  0
 31 22  1  0
 31 26  1  0
M  END
>  <Synonyms>  (447) 
OSI 930|OSI-930

>  <Research Codes>  (447) 
OSI-930

>  <Phase>  (447) 
1

>  <Applicants>  (447) 
nan

>  <USAN Stem>  (447) 
nan

>  <USAN Year>  (447) 
nan

>  <USAN Stem Definition>  (447) 
nan

>  <USAN Stem Substem>  (447) 
nan

>  <First Approval>  (447) 
nan

>  <ATC Codes>  (447) 
nan

>  <Level 4 ATC Codes>  (447) 
nan

>  <Level 3 ATC Codes>  (447) 
nan

>  <Level 2 ATC Codes>  (447) 
nan

>  <Level 1 ATC Codes>  (447) 
nan

>  <Indication Class>  (447) 
nan

>  <Patent>  (447) 
nan

>  <Drug Type>  (447) 
1:Synthetic Small Molecule

>  <Passes Rule of Five>  (447) 
False

>  <First In Class>  (447) 
False

>  <Chirality>  (447) 
Achiral Molecule

>  <Prodrug>  (447) 
False

>  <Oral>  (447) 
False

>  <Parenteral>  (447) 
False

>  <Topical>  (447) 
False

>  <Black Box>  (447) 
False

>  <Availability Type>  (447) 
Unknown

>  <Withdrawn Year>  (447) 
nan

>  <Withdrawn Reason>  (447) 
nan

>  <Withdrawn Country>  (447) 
nan

>  <Withdrawn Class>  (447) 
nan

>  <SMILES>  (447) 
O=C(Nc1ccc(OC(F)(F)F)cc1)c1sccc1NCc1ccnc2ccccc12

>  <InChi Key>  (447) 
FGTCROZDHDSNIO-UHFFFAOYSA-N

$$$$
CHEMBL3894518
     RDKit          2D

 34 37  0  0  0  0  0  0  0  0999 V2000
    4.8308   -6.3240    0.0000 C   0  0  0  0  0  0  0  0  0  0  0  0
    4.6740   -4.8322    0.0000 C   0  0  0  0  0  0  0  0  0  0  0  0
    3.3037   -4.2221    0.0000 N   0  0  0  0  0  0  0  0  0  0  0  0
    2.9918   -2.7549    0.0000 N   0  0  0  0  0  0  0  0  0  0  0  0
    1.5000   -2.5981    0.0000 C   0  0  0  0  0  0  0  0  0  0  0  0
    0.7500   -1.2990    0.0000 C   0  0  0  0  0  0  0  0  0  0  0  0
    1.5000    0.0000    0.0000 C   0  0  0  0  0  0  0  0  0  0  0  0
    0.7500    1.2990    0.0000 C   0  0  0  0  0  0  0  0  0  0  0  0
   -0.7500    1.2990    0.0000 N   0  0  0  0  0  0  0  0  0  0  0  0
   -1.5000    2.5981    0.0000 C   0  0  0  0  0  0  0  0  0  0  0  0
   -3.0000    2.5981    0.0000 O   0  0  0  0  0  0  0  0  0  0  0  0
   -0.7500    3.8971    0.0000 C   0  0  0  0  0  0  0  0  0  0  0  0
   -1.5000    5.1962    0.0000 C   0  0  0  0  0  0  0  0  0  0  0  0
   -0.7500    6.4952    0.0000 O   0  0  0  0  0  0  0  0  0  0  0  0
   -1.5000    0.0000    0.0000 C   0  0  0  0  0  0  0  0  0  0  0  0
   -0.7500   -1.2990    0.0000 C   0  0  0  0  0  0  0  0  0  0  0  0
    0.8899   -3.9684    0.0000 N   0  0  0  0  0  0  0  0  0  0  0  0
    2.0046   -4.9721    0.0000 C   0  0  0  0  0  0  0  0  0  0  0  0
    1.8478   -6.4639    0.0000 C   0  0  0  0  0  0  0  0  0  0  0  0
    0.4775   -7.0740    0.0000 C   0  0  0  0  0  0  0  0  0  0  0  0
    0.3207   -8.5658    0.0000 N   0  0  0  0  0  0  0  0  0  0  0  0
    1.5342   -9.4474    0.0000 C   0  0  0  0  0  0  0  0  0  0  0  0
    1.3774  -10.9392    0.0000 N   0  0  0  0  0  0  0  0  0  0  0  0
    2.9046   -8.8373    0.0000 C   0  0  0  0  0  0  0  0  0  0  0  0
    4.1181   -9.7190    0.0000 C   0  0  0  0  0  0  0  0  0  0  0  0
    5.5447   -9.2555    0.0000 N   0  0  0  0  0  0  0  0  0  0  0  0
    6.4263  -10.4690    0.0000 N   0  0  0  0  0  0  0  0  0  0  0  0
    5.5447  -11.6825    0.0000 C   0  0  0  0  0  0  0  0  0  0  0  0
    6.0082  -13.1091    0.0000 C   0  0  0  0  0  0  0  0  0  0  0  0
    4.5816  -13.5726    0.0000 C   0  0  0  0  0  0  0  0  0  0  0  0
    7.4348  -12.6456    0.0000 C   0  0  0  0  0  0  0  0  0  0  0  0
    6.4717  -14.5357    0.0000 C   0  0  0  0  0  0  0  0  0  0  0  0
    4.1181  -11.2190    0.0000 O   0  0  0  0  0  0  0  0  0  0  0  0
    3.0613   -7.3456    0.0000 N   0  0  0  0  0  0  0  0  0  0  0  0
  1  2  1  0
  2  3  1  0
  3  4  1  0
  4  5  2  0
  5  6  1  0
  6  7  1  0
  7  8  1  0
  8  9  1  0
  9 10  1  0
 10 11  2  0
 10 12  1  0
 12 13  1  0
 13 14  1  0
  9 15  1  0
 15 16  1  0
  5 17  1  0
 17 18  2  0
 18 19  1  0
 19 20  2  0
 20 21  1  0
 21 22  1  0
 22 23  2  0
 22 24  1  0
 24 25  1  0
 25 26  2  0
 26 27  1  0
 27 28  2  0
 28 29  1  0
 29 30  1  0
 29 31  1  0
 29 32  1  0
 28 33  1  0
 24 34  2  0
 18  3  1  0
 34 19  1  0
 16  6  1  0
 33 25  1  0
M  END
>  <Synonyms>  (448) 
AZD 8835|AZD-8835|AZD8835

>  <Research Codes>  (448) 
AZD-8835|AZD8835

>  <Phase>  (448) 
1

>  <Applicants>  (448) 
nan

>  <USAN Stem>  (448) 
nan

>  <USAN Year>  (448) 
nan

>  <USAN Stem Definition>  (448) 
nan

>  <USAN Stem Substem>  (448) 
nan

>  <First Approval>  (448) 
nan

>  <ATC Codes>  (448) 
nan

>  <Level 4 ATC Codes>  (448) 
nan

>  <Level 3 ATC Codes>  (448) 
nan

>  <Level 2 ATC Codes>  (448) 
nan

>  <Level 1 ATC Codes>  (448) 
nan

>  <Indication Class>  (448) 
nan

>  <Patent>  (448) 
nan

>  <Drug Type>  (448) 
1:Synthetic Small Molecule

>  <Passes Rule of Five>  (448) 
False

>  <First In Class>  (448) 
False

>  <Chirality>  (448) 
Achiral Molecule

>  <Prodrug>  (448) 
False

>  <Oral>  (448) 
False

>  <Parenteral>  (448) 
False

>  <Topical>  (448) 
False

>  <Black Box>  (448) 
False

>  <Availability Type>  (448) 
Unknown

>  <Withdrawn Year>  (448) 
nan

>  <Withdrawn Reason>  (448) 
nan

>  <Withdrawn Country>  (448) 
nan

>  <Withdrawn Class>  (448) 
nan

>  <SMILES>  (448) 
CCn1nc(C2CCN(C(=O)CCO)CC2)nc1-c1cnc(N)c(-c2nnc(C(C)(C)C)o2)n1

>  <InChi Key>  (448) 
ZGRDYKFVDCFJCZ-UHFFFAOYSA-N

$$$$
CHEMBL2346976
     RDKit          2D

 37 41  0  0  0  0  0  0  0  0999 V2000
    1.5000  -18.1865    0.0000 C   0  0  0  0  0  0  0  0  0  0  0  0
    3.0000  -18.1865    0.0000 C   0  0  0  0  0  0  0  0  0  0  0  0
    3.7500  -19.4856    0.0000 O   0  0  0  0  0  0  0  0  0  0  0  0
    3.7500  -16.8875    0.0000 N   0  0  0  0  0  0  0  0  0  0  0  0
    3.0000  -15.5885    0.0000 C   0  0  0  0  0  0  0  0  0  0  0  0
    3.7500  -14.2894    0.0000 C   0  0  0  0  0  0  0  0  0  0  0  0
    5.2500  -14.2894    0.0000 N   0  0  0  0  0  0  0  0  0  0  0  0
    6.0000  -12.9904    0.0000 C   0  0  0  0  0  0  0  0  0  0  0  0
    5.2500  -11.6913    0.0000 C   0  0  0  0  0  0  0  0  0  0  0  0
    6.0000  -10.3923    0.0000 O   0  0  0  0  0  0  0  0  0  0  0  0
    5.2500   -9.0933    0.0000 C   0  0  0  0  0  0  0  0  0  0  0  0
    6.0000   -7.7942    0.0000 C   0  0  0  0  0  0  0  0  0  0  0  0
    5.2500   -6.4952    0.0000 C   0  0  0  0  0  0  0  0  0  0  0  0
    3.7500   -6.4952    0.0000 C   0  0  0  0  0  0  0  0  0  0  0  0
    3.0000   -5.1962    0.0000 C   0  0  0  0  0  0  0  0  0  0  0  0
    3.7500   -3.8971    0.0000 C   0  0  0  0  0  0  0  0  0  0  0  0
    3.0000   -2.5981    0.0000 C   0  0  0  0  0  0  0  0  0  0  0  0
    1.5000   -2.5981    0.0000 N   0  0  0  0  0  0  0  0  0  0  0  0
    0.7500   -1.2990    0.0000 C   0  0  0  0  0  0  0  0  0  0  0  0
    1.5000    0.0000    0.0000 N   0  0  0  0  0  0  0  0  0  0  0  0
    0.7500    1.2990    0.0000 N   0  0  0  0  0  0  0  0  0  0  0  0
   -0.7500    1.2990    0.0000 C   0  0  0  0  0  0  0  0  0  0  0  0
   -1.2135    2.7256    0.0000 N   0  0  0  0  0  0  0  0  0  0  0  0
   -0.0000    3.6073    0.0000 N   0  0  0  0  0  0  0  0  0  0  0  0
    1.2135    2.7256    0.0000 C   0  0  0  0  0  0  0  0  0  0  0  0
    2.6401    3.1891    0.0000 C   0  0  0  0  0  0  0  0  0  0  0  0
    4.0667    3.6527    0.0000 F   0  0  0  0  0  0  0  0  0  0  0  0
    2.1766    4.6157    0.0000 F   0  0  0  0  0  0  0  0  0  0  0  0
    3.1036    1.7626    0.0000 F   0  0  0  0  0  0  0  0  0  0  0  0
   -1.5000    0.0000    0.0000 C   0  0  0  0  0  0  0  0  0  0  0  0
   -0.7500   -1.2990    0.0000 C   0  0  0  0  0  0  0  0  0  0  0  0
    0.7500   -3.8971    0.0000 C   0  0  0  0  0  0  0  0  0  0  0  0
    1.5000   -5.1962    0.0000 C   0  0  0  0  0  0  0  0  0  0  0  0
    3.0000   -7.7942    0.0000 C   0  0  0  0  0  0  0  0  0  0  0  0
    3.7500   -9.0933    0.0000 C   0  0  0  0  0  0  0  0  0  0  0  0
    6.0000  -15.5885    0.0000 C   0  0  0  0  0  0  0  0  0  0  0  0
    5.2500  -16.8875    0.0000 C   0  0  0  0  0  0  0  0  0  0  0  0
  1  2  1  0
  2  3  2  0
  2  4  1  0
  4  5  1  0
  5  6  1  0
  6  7  1  0
  7  8  1  0
  8  9  1  0
  9 10  1  0
 10 11  1  0
 11 12  2  0
 12 13  1  0
 13 14  2  0
 14 15  1  0
 15 16  1  0
 16 17  1  0
 17 18  1  0
 18 19  1  0
 19 20  2  0
 20 21  1  0
 21 22  1  0
 22 23  2  0
 23 24  1  0
 24 25  2  0
 25 26  1  0
 26 27  1  0
 26 28  1  0
 26 29  1  0
 22 30  1  0
 30 31  1  0
 18 32  1  0
 32 33  1  0
 14 34  1  0
 34 35  2  0
  7 36  1  0
 36 37  1  0
 37  4  1  0
 35 11  1  0
 33 15  1  0
 31 19  1  0
 25 21  1  0
M  END
>  <Synonyms>  (449) 
AZD3514|CS-1443

>  <Research Codes>  (449) 
CS-1443

>  <Phase>  (449) 
1

>  <Applicants>  (449) 
nan

>  <USAN Stem>  (449) 
nan

>  <USAN Year>  (449) 
nan

>  <USAN Stem Definition>  (449) 
nan

>  <USAN Stem Substem>  (449) 
nan

>  <First Approval>  (449) 
nan

>  <ATC Codes>  (449) 
nan

>  <Level 4 ATC Codes>  (449) 
nan

>  <Level 3 ATC Codes>  (449) 
nan

>  <Level 2 ATC Codes>  (449) 
nan

>  <Level 1 ATC Codes>  (449) 
nan

>  <Indication Class>  (449) 
nan

>  <Patent>  (449) 
nan

>  <Drug Type>  (449) 
1:Synthetic Small Molecule

>  <Passes Rule of Five>  (449) 
False

>  <First In Class>  (449) 
False

>  <Chirality>  (449) 
Achiral Molecule

>  <Prodrug>  (449) 
False

>  <Oral>  (449) 
False

>  <Parenteral>  (449) 
False

>  <Topical>  (449) 
False

>  <Black Box>  (449) 
False

>  <Availability Type>  (449) 
Unknown

>  <Withdrawn Year>  (449) 
nan

>  <Withdrawn Reason>  (449) 
nan

>  <Withdrawn Country>  (449) 
nan

>  <Withdrawn Class>  (449) 
nan

>  <SMILES>  (449) 
CC(=O)N1CCN(CCOc2ccc(C3CCN(C4=Nn5c(nnc5C(F)(F)F)CC4)CC3)cc2)CC1

>  <InChi Key>  (449) 
JMEYDSHPKCSIJC-UHFFFAOYSA-N

$$$$
CHEMBL2022968
     RDKit          2D

 35 38  0  0  0  0  0  0  0  0999 V2000
    3.0000    0.0000    0.0000 C   0  0  0  0  0  0  0  0  0  0  0  0
    1.5000    0.0000    0.0000 N   0  0  0  0  0  0  0  0  0  0  0  0
    0.7500   -1.2990    0.0000 C   0  0  0  0  0  0  0  0  0  0  0  0
   -0.7500   -1.2990    0.0000 C   0  0  0  0  0  0  0  0  0  0  0  0
   -1.5000    0.0000    0.0000 N   0  0  0  0  0  0  0  0  0  0  0  0
   -3.0000    0.0000    0.0000 C   0  0  0  0  0  0  0  0  0  0  0  0
   -3.7500    1.2990    0.0000 C   0  0  0  0  0  0  0  0  0  0  0  0
   -3.0000    2.5981    0.0000 C   0  0  0  0  0  0  0  0  0  0  0  0
   -3.7500    3.8971    0.0000 C   0  0  0  0  0  0  0  0  0  0  0  0
   -5.2500    3.8971    0.0000 C   0  0  0  0  0  0  0  0  0  0  0  0
   -6.0000    5.1962    0.0000 N   0  0  0  0  0  0  0  0  0  0  0  0
   -5.2500    6.4952    0.0000 C   0  0  0  0  0  0  0  0  0  0  0  0
   -3.7500    6.4952    0.0000 N   0  0  0  0  0  0  0  0  0  0  0  0
   -3.0000    7.7942    0.0000 C   0  0  0  0  0  0  0  0  0  0  0  0
   -3.7500    9.0933    0.0000 C   0  0  0  0  0  0  0  0  0  0  0  0
   -3.0000   10.3923    0.0000 Cl  0  0  0  0  0  0  0  0  0  0  0  0
   -5.2500    9.0933    0.0000 C   0  0  0  0  0  0  0  0  0  0  0  0
   -6.0000   10.3923    0.0000 N   0  0  0  0  0  0  0  0  0  0  0  0
   -7.5000   10.3923    0.0000 C   0  0  0  0  0  0  0  0  0  0  0  0
   -8.2500    9.0933    0.0000 C   0  0  0  0  0  0  0  0  0  0  0  0
   -9.7500    9.0933    0.0000 C   0  0  0  0  0  0  0  0  0  0  0  0
  -10.5000   10.3923    0.0000 C   0  0  0  0  0  0  0  0  0  0  0  0
   -9.7500   11.6913    0.0000 C   0  0  0  0  0  0  0  0  0  0  0  0
   -8.2500   11.6913    0.0000 C   0  0  0  0  0  0  0  0  0  0  0  0
   -7.5000   12.9904    0.0000 S   0  0  0  0  0  0  0  0  0  0  0  0
   -8.7990   13.7404    0.0000 O   0  0  0  0  0  0  0  0  0  0  0  0
   -6.2010   12.2404    0.0000 O   0  0  0  0  0  0  0  0  0  0  0  0
   -6.7500   14.2894    0.0000 N   0  0  0  0  0  0  0  0  0  0  0  0
   -7.5000   15.5885    0.0000 C   0  0  0  0  0  0  0  0  0  0  0  0
   -5.2500   14.2894    0.0000 C   0  0  0  0  0  0  0  0  0  0  0  0
   -6.0000    7.7942    0.0000 N   0  0  0  0  0  0  0  0  0  0  0  0
   -6.0000    2.5981    0.0000 C   0  0  0  0  0  0  0  0  0  0  0  0
   -5.2500    1.2990    0.0000 C   0  0  0  0  0  0  0  0  0  0  0  0
   -0.7500    1.2990    0.0000 C   0  0  0  0  0  0  0  0  0  0  0  0
    0.7500    1.2990    0.0000 C   0  0  0  0  0  0  0  0  0  0  0  0
  1  2  1  0
  2  3  1  0
  3  4  1  0
  4  5  1  0
  5  6  1  0
  6  7  1  0
  7  8  2  0
  8  9  1  0
  9 10  2  0
 10 11  1  0
 11 12  2  3
 12 13  1  0
 13 14  1  0
 14 15  2  0
 15 16  1  0
 15 17  1  0
 17 18  2  3
 18 19  1  0
 19 20  2  0
 20 21  1  0
 21 22  2  0
 22 23  1  0
 23 24  2  0
 24 25  1  0
 25 26  2  0
 25 27  2  0
 25 28  1  0
 28 29  1  0
 28 30  1  0
 17 31  1  0
 10 32  1  0
 32 33  2  0
  5 34  1  0
 34 35  1  0
 35  2  1  0
 33  7  1  0
 31 12  1  0
 24 19  1  0
M  END
>  <Synonyms>  (450) 
DUBERMATINIB|TP 0903|TP-0903

>  <Research Codes>  (450) 
nan

>  <Phase>  (450) 
1

>  <Applicants>  (450) 
nan

>  <USAN Stem>  (450) 
'-tinib'

>  <USAN Year>  (450) 
nan

>  <USAN Stem Definition>  (450) 
tyrosine kinase inhibitors

>  <USAN Stem Substem>  (450) 
'-tinib(-tinib)'

>  <First Approval>  (450) 
nan

>  <ATC Codes>  (450) 
nan

>  <Level 4 ATC Codes>  (450) 
nan

>  <Level 3 ATC Codes>  (450) 
nan

>  <Level 2 ATC Codes>  (450) 
nan

>  <Level 1 ATC Codes>  (450) 
nan

>  <Indication Class>  (450) 
nan

>  <Patent>  (450) 
nan

>  <Drug Type>  (450) 
1:Synthetic Small Molecule

>  <Passes Rule of Five>  (450) 
False

>  <First In Class>  (450) 
False

>  <Chirality>  (450) 
Achiral Molecule

>  <Prodrug>  (450) 
False

>  <Oral>  (450) 
False

>  <Parenteral>  (450) 
False

>  <Topical>  (450) 
False

>  <Black Box>  (450) 
False

>  <Availability Type>  (450) 
Unknown

>  <Withdrawn Year>  (450) 
nan

>  <Withdrawn Reason>  (450) 
nan

>  <Withdrawn Country>  (450) 
nan

>  <Withdrawn Class>  (450) 
nan

>  <SMILES>  (450) 
CN1CCN(Cc2ccc(Nc3ncc(Cl)c(Nc4ccccc4S(=O)(=O)N(C)C)n3)cc2)CC1

>  <InChi Key>  (450) 
YUAALFPUEOYPNX-UHFFFAOYSA-N

$$$$
CHEMBL1963502
     RDKit          2D

 25 28  0  0  0  0  0  0  0  0999 V2000
    3.7500   -3.8971    0.0000 C   0  0  0  0  0  0  0  0  0  0  0  0
    3.0000   -2.5981    0.0000 C   0  0  0  0  0  0  0  0  0  0  0  0
    1.5000   -2.5981    0.0000 N   0  0  0  0  0  0  0  0  0  0  0  0
    0.7500   -1.2990    0.0000 C   0  0  0  0  0  0  0  0  0  0  0  0
    1.5000    0.0000    0.0000 N   0  0  0  0  0  0  0  0  0  0  0  0
    0.7500    1.2990    0.0000 C   0  0  0  0  0  0  0  0  0  0  0  0
   -0.7500    1.2990    0.0000 N   0  0  0  0  0  0  0  0  0  0  0  0
   -1.5000    0.0000    0.0000 C   0  0  0  0  0  0  0  0  0  0  0  0
   -2.9672   -0.3119    0.0000 N   0  0  0  0  0  0  0  0  0  0  0  0
   -3.1240   -1.8037    0.0000 C   0  0  0  0  0  0  0  0  0  0  0  0
   -4.4231   -2.5537    0.0000 C   0  0  0  0  0  0  0  0  0  0  0  0
   -5.7221   -1.8037    0.0000 C   0  0  0  0  0  0  0  0  0  0  0  0
   -7.0211   -2.5537    0.0000 C   0  0  0  0  0  0  0  0  0  0  0  0
   -7.0211   -4.0537    0.0000 C   0  0  0  0  0  0  0  0  0  0  0  0
   -8.3202   -4.8037    0.0000 O   0  0  0  0  0  0  0  0  0  0  0  0
   -5.7221   -4.8037    0.0000 C   0  0  0  0  0  0  0  0  0  0  0  0
   -4.4231   -4.0537    0.0000 C   0  0  0  0  0  0  0  0  0  0  0  0
   -1.7537   -2.4138    0.0000 C   0  0  0  0  0  0  0  0  0  0  0  0
   -0.7500   -1.2990    0.0000 C   0  0  0  0  0  0  0  0  0  0  0  0
    3.7500   -1.2990    0.0000 C   0  0  0  0  0  0  0  0  0  0  0  0
    5.2500   -1.2990    0.0000 C   0  0  0  0  0  0  0  0  0  0  0  0
    6.0000   -0.0000    0.0000 C   0  0  0  0  0  0  0  0  0  0  0  0
    5.2500    1.2990    0.0000 C   0  0  0  0  0  0  0  0  0  0  0  0
    3.7500    1.2990    0.0000 C   0  0  0  0  0  0  0  0  0  0  0  0
    3.0000   -0.0000    0.0000 C   0  0  0  0  0  0  0  0  0  0  0  0
  2  1  1  1
  2  3  1  0
  3  4  2  3
  4  5  1  0
  5  6  1  0
  6  7  2  0
  7  8  1  0
  8  9  1  0
  9 10  1  0
 10 11  1  0
 11 12  2  0
 12 13  1  0
 13 14  2  0
 14 15  1  0
 14 16  1  0
 16 17  2  0
 10 18  2  0
 18 19  1  0
  2 20  1  0
 20 21  2  0
 21 22  1  0
 22 23  2  0
 23 24  1  0
 24 25  2  0
 19  4  1  0
 25 20  1  0
 19  8  2  0
 17 11  1  0
M  END
>  <Synonyms>  (451) 
CGP-75166|NVP-PKI166|PKI-166

>  <Research Codes>  (451) 
CGP-75166|NVP-PKI166|PKI-166

>  <Phase>  (451) 
1

>  <Applicants>  (451) 
nan

>  <USAN Stem>  (451) 
nan

>  <USAN Year>  (451) 
nan

>  <USAN Stem Definition>  (451) 
nan

>  <USAN Stem Substem>  (451) 
nan

>  <First Approval>  (451) 
nan

>  <ATC Codes>  (451) 
nan

>  <Level 4 ATC Codes>  (451) 
nan

>  <Level 3 ATC Codes>  (451) 
nan

>  <Level 2 ATC Codes>  (451) 
nan

>  <Level 1 ATC Codes>  (451) 
nan

>  <Indication Class>  (451) 
nan

>  <Patent>  (451) 
nan

>  <Drug Type>  (451) 
1:Synthetic Small Molecule

>  <Passes Rule of Five>  (451) 
True

>  <First In Class>  (451) 
False

>  <Chirality>  (451) 
Single Stereoisomer

>  <Prodrug>  (451) 
False

>  <Oral>  (451) 
False

>  <Parenteral>  (451) 
False

>  <Topical>  (451) 
False

>  <Black Box>  (451) 
False

>  <Availability Type>  (451) 
Unknown

>  <Withdrawn Year>  (451) 
nan

>  <Withdrawn Reason>  (451) 
nan

>  <Withdrawn Country>  (451) 
nan

>  <Withdrawn Class>  (451) 
nan

>  <SMILES>  (451) 
C[C@@H](Nc1ncnc2[nH]c(-c3ccc(O)cc3)cc12)c1ccccc1

>  <InChi Key>  (451) 
XRYJULCDUUATMC-CYBMUJFWSA-N

$$$$
CHEMBL375611
     RDKit          2D

 15 16  0  0  0  0  0  0  0  0999 V2000
   -1.2495   -2.5838    0.0000 N   0  0  0  0  0  0  0  0  0  0  0  0
   -1.8596   -1.2135    0.0000 C   0  0  0  0  0  0  0  0  0  0  0  0
   -3.1586   -1.9635    0.0000 C   0  0  0  0  0  0  0  0  0  0  0  0
   -4.4577   -1.2135    0.0000 O   0  0  0  0  0  0  0  0  0  0  0  0
   -3.1586   -3.4635    0.0000 O   0  0  0  0  0  0  0  0  0  0  0  0
   -2.7413    0.0000    0.0000 C   0  0  0  0  0  0  0  0  0  0  0  0
   -1.8596    1.2135    0.0000 S   0  0  0  0  0  0  0  0  0  0  0  0
   -1.2495    2.5838    0.0000 O   0  0  0  0  0  0  0  0  0  0  0  0
   -3.1586    1.9635    0.0000 O   0  0  0  0  0  0  0  0  0  0  0  0
   -0.4330    0.7500    0.0000 C   0  0  0  0  0  0  0  0  0  0  0  0
    0.8660    0.0000    0.0000 C   0  0  0  0  0  0  0  0  0  0  0  0
    2.3660    0.0000    0.0000 C   0  0  0  0  0  0  0  0  0  0  0  0
    3.1160    1.2990    0.0000 O   0  0  0  0  0  0  0  0  0  0  0  0
    3.1160   -1.2990    0.0000 O   0  0  0  0  0  0  0  0  0  0  0  0
   -0.4330   -0.7500    0.0000 C   0  0  0  0  0  0  0  0  0  0  0  0
  2  1  1  1
  2  3  1  0
  3  4  2  0
  3  5  1  0
  2  6  1  0
  6  7  1  0
  7  8  2  0
  7  9  2  0
  7 10  1  0
 10 11  1  1
 11 12  1  0
 12 13  2  0
 12 14  1  0
 15 11  1  1
 15  2  1  0
 15 10  1  0
M  END
>  <Synonyms>  (452) 
LY-404039, (-)-|LY404039

>  <Research Codes>  (452) 
LY-404039|LY-404039, (-)-

>  <Phase>  (452) 
1

>  <Applicants>  (452) 
nan

>  <USAN Stem>  (452) 
nan

>  <USAN Year>  (452) 
nan

>  <USAN Stem Definition>  (452) 
nan

>  <USAN Stem Substem>  (452) 
nan

>  <First Approval>  (452) 
nan

>  <ATC Codes>  (452) 
nan

>  <Level 4 ATC Codes>  (452) 
nan

>  <Level 3 ATC Codes>  (452) 
nan

>  <Level 2 ATC Codes>  (452) 
nan

>  <Level 1 ATC Codes>  (452) 
nan

>  <Indication Class>  (452) 
nan

>  <Patent>  (452) 
nan

>  <Drug Type>  (452) 
1:Synthetic Small Molecule

>  <Passes Rule of Five>  (452) 
True

>  <First In Class>  (452) 
False

>  <Chirality>  (452) 
Single Stereoisomer

>  <Prodrug>  (452) 
False

>  <Oral>  (452) 
False

>  <Parenteral>  (452) 
False

>  <Topical>  (452) 
False

>  <Black Box>  (452) 
False

>  <Availability Type>  (452) 
Unknown

>  <Withdrawn Year>  (452) 
nan

>  <Withdrawn Reason>  (452) 
nan

>  <Withdrawn Country>  (452) 
nan

>  <Withdrawn Class>  (452) 
nan

>  <SMILES>  (452) 
N[C@@]1(C(=O)O)CS(=O)(=O)[C@H]2[C@H](C(=O)O)[C@H]21

>  <InChi Key>  (452) 
AVDUGNCTZRCAHH-BXPDIHNCSA-N

$$$$
CHEMBL1908394
     RDKit          2D

 38 42  0  0  0  0  0  0  0  0999 V2000
   -8.2322   -0.7949    0.0000 C   0  0  0  0  0  0  0  0  0  0  0  0
   -6.8056   -1.2584    0.0000 C   0  0  0  0  0  0  0  0  0  0  0  0
   -6.4937   -2.7256    0.0000 O   0  0  0  0  0  0  0  0  0  0  0  0
   -5.0672   -3.1891    0.0000 C   0  0  0  0  0  0  0  0  0  0  0  0
   -3.8536   -2.3075    0.0000 C   0  0  0  0  0  0  0  0  0  0  0  0
   -2.6401   -3.1891    0.0000 C   0  0  0  0  0  0  0  0  0  0  0  0
   -1.2135   -2.7256    0.0000 N   0  0  0  0  0  0  0  0  0  0  0  0
   -0.0000   -3.6073    0.0000 C   0  0  0  0  0  0  0  0  0  0  0  0
    1.2135   -2.7256    0.0000 N   0  0  0  0  0  0  0  0  0  0  0  0
    0.7500   -1.2990    0.0000 C   0  0  0  0  0  0  0  0  0  0  0  0
    1.5000    0.0000    0.0000 C   0  0  0  0  0  0  0  0  0  0  0  0
    0.7500    1.2990    0.0000 C   0  0  0  0  0  0  0  0  0  0  0  0
   -0.7500    1.2990    0.0000 C   0  0  0  0  0  0  0  0  0  0  0  0
   -1.5000    2.5981    0.0000 C   0  0  0  0  0  0  0  0  0  0  0  0
   -0.7500    3.8971    0.0000 N   0  0  0  0  0  0  0  0  0  0  0  0
    0.7500    3.8971    0.0000 C   0  0  0  0  0  0  0  0  0  0  0  0
    1.5000    5.1962    0.0000 C   0  0  0  0  0  0  0  0  0  0  0  0
    0.7500    6.4952    0.0000 N   0  0  0  0  0  0  0  0  0  0  0  0
    1.5000    7.7942    0.0000 C   0  0  0  0  0  0  0  0  0  0  0  0
   -0.7500    6.4952    0.0000 C   0  0  0  0  0  0  0  0  0  0  0  0
   -1.5000    5.1962    0.0000 C   0  0  0  0  0  0  0  0  0  0  0  0
   -1.5000    0.0000    0.0000 C   0  0  0  0  0  0  0  0  0  0  0  0
   -0.7500   -1.2990    0.0000 C   0  0  0  0  0  0  0  0  0  0  0  0
   -3.1036   -4.6157    0.0000 S   0  0  0  0  0  0  0  0  0  0  0  0
   -4.6036   -4.6157    0.0000 C   0  0  0  0  0  0  0  0  0  0  0  0
   -5.4853   -5.8293    0.0000 C   0  0  0  0  0  0  0  0  0  0  0  0
   -4.8752   -7.1996    0.0000 N   0  0  0  0  0  0  0  0  0  0  0  0
   -6.9771   -5.6725    0.0000 O   0  0  0  0  0  0  0  0  0  0  0  0
   -5.6909   -0.2547    0.0000 C   0  0  0  0  0  0  0  0  0  0  0  0
   -4.2643   -0.7182    0.0000 C   0  0  0  0  0  0  0  0  0  0  0  0
   -3.1496    0.2855    0.0000 C   0  0  0  0  0  0  0  0  0  0  0  0
   -3.4615    1.7527    0.0000 C   0  0  0  0  0  0  0  0  0  0  0  0
   -4.8880    2.2162    0.0000 C   0  0  0  0  0  0  0  0  0  0  0  0
   -6.0028    1.2125    0.0000 C   0  0  0  0  0  0  0  0  0  0  0  0
   -7.4293    1.6760    0.0000 C   0  0  0  0  0  0  0  0  0  0  0  0
   -8.8559    2.1396    0.0000 F   0  0  0  0  0  0  0  0  0  0  0  0
   -6.9658    3.1026    0.0000 F   0  0  0  0  0  0  0  0  0  0  0  0
   -7.8929    0.2495    0.0000 F   0  0  0  0  0  0  0  0  0  0  0  0
  2  1  1  6
  2  3  1  0
  3  4  1  0
  4  5  1  0
  5  6  2  0
  6  7  1  0
  7  8  1  0
  8  9  2  0
  9 10  1  0
 10 11  2  0
 11 12  1  0
 12 13  2  0
 13 14  1  0
 14 15  1  0
 15 16  1  0
 16 17  1  0
 17 18  1  0
 18 19  1  0
 18 20  1  0
 20 21  1  0
 13 22  1  0
 22 23  2  0
  6 24  1  0
 24 25  1  0
 25 26  1  0
 26 27  1  0
 26 28  2  0
  2 29  1  0
 29 30  2  0
 30 31  1  0
 31 32  2  0
 32 33  1  0
 33 34  2  0
 34 35  1  0
 35 36  1  0
 35 37  1  0
 35 38  1  0
 25  4  2  0
 34 29  1  0
 23  7  1  0
 23 10  1  0
 21 15  1  0
M  END
>  <Synonyms>  (453) 
GSK 461364|GSK-461364|GSK-461364A

>  <Research Codes>  (453) 
GSK-461364A

>  <Phase>  (453) 
1

>  <Applicants>  (453) 
nan

>  <USAN Stem>  (453) 
nan

>  <USAN Year>  (453) 
nan

>  <USAN Stem Definition>  (453) 
nan

>  <USAN Stem Substem>  (453) 
nan

>  <First Approval>  (453) 
nan

>  <ATC Codes>  (453) 
nan

>  <Level 4 ATC Codes>  (453) 
nan

>  <Level 3 ATC Codes>  (453) 
nan

>  <Level 2 ATC Codes>  (453) 
nan

>  <Level 1 ATC Codes>  (453) 
nan

>  <Indication Class>  (453) 
nan

>  <Patent>  (453) 
nan

>  <Drug Type>  (453) 
1:Synthetic Small Molecule

>  <Passes Rule of Five>  (453) 
False

>  <First In Class>  (453) 
False

>  <Chirality>  (453) 
Single Stereoisomer

>  <Prodrug>  (453) 
False

>  <Oral>  (453) 
False

>  <Parenteral>  (453) 
False

>  <Topical>  (453) 
False

>  <Black Box>  (453) 
False

>  <Availability Type>  (453) 
Unknown

>  <Withdrawn Year>  (453) 
nan

>  <Withdrawn Reason>  (453) 
nan

>  <Withdrawn Country>  (453) 
nan

>  <Withdrawn Class>  (453) 
nan

>  <SMILES>  (453) 
C[C@@H](Oc1cc(-n2cnc3ccc(CN4CCN(C)CC4)cc32)sc1C(N)=O)c1ccccc1C(F)(F)F

>  <InChi Key>  (453) 
ZHJGWYRLJUCMRT-QGZVFWFLSA-N

$$$$
CHEMBL296468
     RDKit          2D

 25 27  0  0  0  0  0  0  0  0999 V2000
    7.4557  -13.2052    0.0000 C   0  0  0  0  0  0  0  0  0  0  0  0
    8.7547  -12.4552    0.0000 C   0  0  0  0  0  0  0  0  0  0  0  0
   10.0538  -11.7052    0.0000 C   0  0  0  0  0  0  0  0  0  0  0  0
    9.5047  -13.7542    0.0000 C   0  0  0  0  0  0  0  0  0  0  0  0
    8.0047  -11.1562    0.0000 C   0  0  0  0  0  0  0  0  0  0  0  0
    8.6148   -9.7859    0.0000 C   0  0  0  0  0  0  0  0  0  0  0  0
    7.5001   -8.7822    0.0000 N   0  0  0  0  0  0  0  0  0  0  0  0
    6.2011   -9.5322    0.0000 C   0  0  0  0  0  0  0  0  0  0  0  0
    4.8308   -8.9221    0.0000 C   0  0  0  0  0  0  0  0  0  0  0  0
    4.6740   -7.4303    0.0000 S   0  0  0  0  0  0  0  0  0  0  0  0
    3.3037   -6.8202    0.0000 C   0  0  0  0  0  0  0  0  0  0  0  0
    2.0046   -7.5702    0.0000 C   0  0  0  0  0  0  0  0  0  0  0  0
    0.8899   -6.5665    0.0000 N   0  0  0  0  0  0  0  0  0  0  0  0
    1.5000   -5.1962    0.0000 C   0  0  0  0  0  0  0  0  0  0  0  0
    0.7500   -3.8971    0.0000 N   0  0  0  0  0  0  0  0  0  0  0  0
    1.5000   -2.5981    0.0000 C   0  0  0  0  0  0  0  0  0  0  0  0
    3.0000   -2.5981    0.0000 O   0  0  0  0  0  0  0  0  0  0  0  0
    0.7500   -1.2990    0.0000 C   0  0  0  0  0  0  0  0  0  0  0  0
    1.5000    0.0000    0.0000 C   0  0  0  0  0  0  0  0  0  0  0  0
    0.7500    1.2990    0.0000 C   0  0  0  0  0  0  0  0  0  0  0  0
   -0.7500    1.2990    0.0000 N   0  0  0  0  0  0  0  0  0  0  0  0
   -1.5000    0.0000    0.0000 C   0  0  0  0  0  0  0  0  0  0  0  0
   -0.7500   -1.2990    0.0000 C   0  0  0  0  0  0  0  0  0  0  0  0
    2.9918   -5.3529    0.0000 S   0  0  0  0  0  0  0  0  0  0  0  0
    6.5129  -10.9994    0.0000 O   0  0  0  0  0  0  0  0  0  0  0  0
  1  2  1  0
  2  3  1  0
  2  4  1  0
  2  5  1  0
  5  6  2  0
  6  7  1  0
  7  8  2  0
  8  9  1  0
  9 10  1  0
 10 11  1  0
 11 12  2  0
 12 13  1  0
 13 14  1  0
 14 15  2  3
 15 16  1  0
 16 17  2  0
 16 18  1  0
 18 19  1  0
 19 20  1  0
 20 21  1  0
 21 22  1  0
 22 23  1  0
 14 24  1  0
  8 25  1  0
 25  5  1  0
 24 11  1  0
 23 18  1  0
M  END
>  <Synonyms>  (454) 
BMS-387032|SNS 032|SNS-032

>  <Research Codes>  (454) 
BMS-387032|SNS-032

>  <Phase>  (454) 
1

>  <Applicants>  (454) 
nan

>  <USAN Stem>  (454) 
nan

>  <USAN Year>  (454) 
nan

>  <USAN Stem Definition>  (454) 
nan

>  <USAN Stem Substem>  (454) 
nan

>  <First Approval>  (454) 
nan

>  <ATC Codes>  (454) 
nan

>  <Level 4 ATC Codes>  (454) 
nan

>  <Level 3 ATC Codes>  (454) 
nan

>  <Level 2 ATC Codes>  (454) 
nan

>  <Level 1 ATC Codes>  (454) 
nan

>  <Indication Class>  (454) 
nan

>  <Patent>  (454) 
nan

>  <Drug Type>  (454) 
1:Synthetic Small Molecule

>  <Passes Rule of Five>  (454) 
True

>  <First In Class>  (454) 
False

>  <Chirality>  (454) 
Achiral Molecule

>  <Prodrug>  (454) 
False

>  <Oral>  (454) 
False

>  <Parenteral>  (454) 
False

>  <Topical>  (454) 
False

>  <Black Box>  (454) 
False

>  <Availability Type>  (454) 
Unknown

>  <Withdrawn Year>  (454) 
nan

>  <Withdrawn Reason>  (454) 
nan

>  <Withdrawn Country>  (454) 
nan

>  <Withdrawn Class>  (454) 
nan

>  <SMILES>  (454) 
CC(C)(C)c1cnc(CSc2cnc(NC(=O)C3CCNCC3)s2)o1

>  <InChi Key>  (454) 
OUSFTKFNBAZUKL-UHFFFAOYSA-N

$$$$
CHEMBL1320667
     RDKit          2D

 15 16  0  0  0  0  0  0  0  0999 V2000
    6.2011   -6.9341    0.0000 O   0  0  0  0  0  0  0  0  0  0  0  0
    4.8308   -6.3240    0.0000 C   0  0  0  0  0  0  0  0  0  0  0  0
    3.6172   -7.2057    0.0000 O   0  0  0  0  0  0  0  0  0  0  0  0
    4.6740   -4.8322    0.0000 C   0  0  0  0  0  0  0  0  0  0  0  0
    3.3037   -4.2221    0.0000 C   0  0  0  0  0  0  0  0  0  0  0  0
    2.9918   -2.7549    0.0000 C   0  0  0  0  0  0  0  0  0  0  0  0
    1.5000   -2.5981    0.0000 C   0  0  0  0  0  0  0  0  0  0  0  0
    0.7500   -1.2990    0.0000 C   0  0  0  0  0  0  0  0  0  0  0  0
    1.5000    0.0000    0.0000 C   0  0  0  0  0  0  0  0  0  0  0  0
    0.7500    1.2990    0.0000 C   0  0  0  0  0  0  0  0  0  0  0  0
   -0.7500    1.2990    0.0000 C   0  0  0  0  0  0  0  0  0  0  0  0
   -1.5000    0.0000    0.0000 C   0  0  0  0  0  0  0  0  0  0  0  0
   -0.7500   -1.2990    0.0000 C   0  0  0  0  0  0  0  0  0  0  0  0
    0.8899   -3.9684    0.0000 N   0  0  0  0  0  0  0  0  0  0  0  0
    2.0046   -4.9721    0.0000 O   0  0  0  0  0  0  0  0  0  0  0  0
  1  2  2  0
  2  3  1  0
  2  4  1  0
  4  5  1  0
  5  6  1  0
  6  7  1  0
  7  8  1  0
  8  9  2  0
  9 10  1  0
 10 11  2  0
 11 12  1  0
 12 13  2  0
  7 14  2  0
 14 15  1  0
 15  5  1  0
 13  8  1  0
M  END
>  <Synonyms>  (455) 
VGX-1027

>  <Research Codes>  (455) 
VGX-1027

>  <Phase>  (455) 
1

>  <Applicants>  (455) 
nan

>  <USAN Stem>  (455) 
nan

>  <USAN Year>  (455) 
nan

>  <USAN Stem Definition>  (455) 
nan

>  <USAN Stem Substem>  (455) 
nan

>  <First Approval>  (455) 
nan

>  <ATC Codes>  (455) 
nan

>  <Level 4 ATC Codes>  (455) 
nan

>  <Level 3 ATC Codes>  (455) 
nan

>  <Level 2 ATC Codes>  (455) 
nan

>  <Level 1 ATC Codes>  (455) 
nan

>  <Indication Class>  (455) 
nan

>  <Patent>  (455) 
nan

>  <Drug Type>  (455) 
1:Synthetic Small Molecule

>  <Passes Rule of Five>  (455) 
True

>  <First In Class>  (455) 
False

>  <Chirality>  (455) 
Racemic Mixture

>  <Prodrug>  (455) 
False

>  <Oral>  (455) 
False

>  <Parenteral>  (455) 
False

>  <Topical>  (455) 
False

>  <Black Box>  (455) 
False

>  <Availability Type>  (455) 
Unknown

>  <Withdrawn Year>  (455) 
nan

>  <Withdrawn Reason>  (455) 
nan

>  <Withdrawn Country>  (455) 
nan

>  <Withdrawn Class>  (455) 
nan

>  <SMILES>  (455) 
O=C(O)CC1CC(c2ccccc2)=NO1

>  <InChi Key>  (455) 
MUFJHYRCIHHATF-UHFFFAOYSA-N

$$$$
CHEMBL3939295
     RDKit          2D

 43 46  0  0  0  0  0  0  0  0999 V2000
    6.0000   -2.5981    0.0000 C   0  0  0  0  0  0  0  0  0  0  0  0
    5.2500   -1.2990    0.0000 C   0  0  0  0  0  0  0  0  0  0  0  0
    3.7500   -1.2990    0.0000 C   0  0  0  0  0  0  0  0  0  0  0  0
    3.0000   -2.5981    0.0000 O   0  0  0  0  0  0  0  0  0  0  0  0
    3.0000    0.0000    0.0000 N   0  0  0  0  0  0  0  0  0  0  0  0
    1.5000    0.0000    0.0000 C   0  0  0  0  0  0  0  0  0  0  0  0
    0.7500   -1.2990    0.0000 C   0  0  0  0  0  0  0  0  0  0  0  0
   -0.7500   -1.2990    0.0000 C   0  0  0  0  0  0  0  0  0  0  0  0
   -1.5000   -2.5981    0.0000 N   0  0  0  0  0  0  0  0  0  0  0  0
   -3.0000   -2.5981    0.0000 C   0  0  0  0  0  0  0  0  0  0  0  0
   -3.7500   -3.8971    0.0000 C   0  0  0  0  0  0  0  0  0  0  0  0
   -3.0000   -5.1962    0.0000 N   0  0  0  0  0  0  0  0  0  0  0  0
   -3.7500   -6.4952    0.0000 C   0  0  0  0  0  0  0  0  0  0  0  0
   -5.2500   -6.4952    0.0000 C   0  0  0  0  0  0  0  0  0  0  0  0
   -1.5000   -5.1962    0.0000 C   0  0  0  0  0  0  0  0  0  0  0  0
   -0.7500   -3.8971    0.0000 C   0  0  0  0  0  0  0  0  0  0  0  0
   -1.5000    0.0000    0.0000 C   0  0  0  0  0  0  0  0  0  0  0  0
   -0.7500    1.2990    0.0000 C   0  0  0  0  0  0  0  0  0  0  0  0
    0.7500    1.2990    0.0000 C   0  0  0  0  0  0  0  0  0  0  0  0
    1.5000    2.5981    0.0000 N   0  0  0  0  0  0  0  0  0  0  0  0
    0.7500    3.8971    0.0000 C   0  0  0  0  0  0  0  0  0  0  0  0
    1.5000    5.1962    0.0000 C   0  0  0  0  0  0  0  0  0  0  0  0
    0.7500    6.4952    0.0000 C   0  0  0  0  0  0  0  0  0  0  0  0
    1.5000    7.7942    0.0000 N   0  0  0  0  0  0  0  0  0  0  0  0
    3.0000    7.7942    0.0000 C   0  0  0  0  0  0  0  0  0  0  0  0
    0.7500    9.0933    0.0000 C   0  0  0  0  0  0  0  0  0  0  0  0
   -0.7500    9.0933    0.0000 O   0  0  0  0  0  0  0  0  0  0  0  0
    1.5000   10.3923    0.0000 N   0  0  0  0  0  0  0  0  0  0  0  0
    0.7500   11.6913    0.0000 C   0  0  0  0  0  0  0  0  0  0  0  0
    1.5000   12.9904    0.0000 C   0  0  0  0  0  0  0  0  0  0  0  0
    3.0000   12.9904    0.0000 Cl  0  0  0  0  0  0  0  0  0  0  0  0
    0.7500   14.2894    0.0000 C   0  0  0  0  0  0  0  0  0  0  0  0
    1.5000   15.5885    0.0000 O   0  0  0  0  0  0  0  0  0  0  0  0
    0.7500   16.8875    0.0000 C   0  0  0  0  0  0  0  0  0  0  0  0
   -0.7500   14.2894    0.0000 C   0  0  0  0  0  0  0  0  0  0  0  0
   -1.5000   12.9904    0.0000 C   0  0  0  0  0  0  0  0  0  0  0  0
   -3.0000   12.9904    0.0000 O   0  0  0  0  0  0  0  0  0  0  0  0
   -3.7500   14.2894    0.0000 C   0  0  0  0  0  0  0  0  0  0  0  0
   -0.7500   11.6913    0.0000 C   0  0  0  0  0  0  0  0  0  0  0  0
   -1.5000   10.3923    0.0000 Cl  0  0  0  0  0  0  0  0  0  0  0  0
   -0.7500    6.4952    0.0000 N   0  0  0  0  0  0  0  0  0  0  0  0
   -1.5000    5.1962    0.0000 C   0  0  0  0  0  0  0  0  0  0  0  0
   -0.7500    3.8971    0.0000 N   0  0  0  0  0  0  0  0  0  0  0  0
  1  2  2  0
  2  3  1  0
  3  4  2  0
  3  5  1  0
  5  6  1  0
  6  7  2  0
  7  8  1  0
  8  9  1  0
  9 10  1  0
 10 11  1  0
 11 12  1  0
 12 13  1  0
 13 14  1  0
 12 15  1  0
 15 16  1  0
  8 17  2  0
 17 18  1  0
 18 19  2  0
 19 20  1  0
 20 21  2  3
 21 22  1  0
 22 23  2  0
 23 24  1  0
 24 25  1  0
 24 26  1  0
 26 27  2  0
 26 28  1  0
 28 29  1  0
 29 30  2  0
 30 31  1  0
 30 32  1  0
 32 33  1  0
 33 34  1  0
 32 35  2  0
 35 36  1  0
 36 37  1  0
 37 38  1  0
 36 39  2  0
 39 40  1  0
 23 41  1  0
 41 42  1  0
 42 43  2  0
 19  6  1  0
 43 21  1  0
 16  9  1  0
 39 29  1  0
M  END
>  <Synonyms>  (456) 
H3B-6527

>  <Research Codes>  (456) 
H3B-6527

>  <Phase>  (456) 
1

>  <Applicants>  (456) 
nan

>  <USAN Stem>  (456) 
nan

>  <USAN Year>  (456) 
nan

>  <USAN Stem Definition>  (456) 
nan

>  <USAN Stem Substem>  (456) 
nan

>  <First Approval>  (456) 
nan

>  <ATC Codes>  (456) 
nan

>  <Level 4 ATC Codes>  (456) 
nan

>  <Level 3 ATC Codes>  (456) 
nan

>  <Level 2 ATC Codes>  (456) 
nan

>  <Level 1 ATC Codes>  (456) 
nan

>  <Indication Class>  (456) 
nan

>  <Patent>  (456) 
nan

>  <Drug Type>  (456) 
1:Synthetic Small Molecule

>  <Passes Rule of Five>  (456) 
False

>  <First In Class>  (456) 
False

>  <Chirality>  (456) 
Achiral Molecule

>  <Prodrug>  (456) 
False

>  <Oral>  (456) 
False

>  <Parenteral>  (456) 
False

>  <Topical>  (456) 
False

>  <Black Box>  (456) 
False

>  <Availability Type>  (456) 
Unknown

>  <Withdrawn Year>  (456) 
nan

>  <Withdrawn Reason>  (456) 
nan

>  <Withdrawn Country>  (456) 
nan

>  <Withdrawn Class>  (456) 
nan

>  <SMILES>  (456) 
C=CC(=O)Nc1cc(N2CCN(CC)CC2)ccc1Nc1cc(N(C)C(=O)Nc2c(Cl)c(OC)cc(OC)c2Cl)ncn1

>  <InChi Key>  (456) 
MBWRLLRCTIYXDW-UHFFFAOYSA-N

$$$$
CHEMBL36255
     RDKit          2D

 24 25  0  0  0  0  0  0  0  0999 V2000
    3.7500    1.2990    0.0000 C   0  0  0  0  0  0  0  0  0  0  0  0
    3.0000    0.0000    0.0000 O   0  0  0  0  0  0  0  0  0  0  0  0
    1.5000    0.0000    0.0000 C   0  0  0  0  0  0  0  0  0  0  0  0
    0.7500    1.2990    0.0000 C   0  0  0  0  0  0  0  0  0  0  0  0
   -0.7500    1.2990    0.0000 C   0  0  0  0  0  0  0  0  0  0  0  0
   -1.5000    0.0000    0.0000 C   0  0  0  0  0  0  0  0  0  0  0  0
   -3.0000    0.0000    0.0000 C   0  0  0  0  0  0  0  0  0  0  0  0
   -3.7500    1.2990    0.0000 C   0  0  0  0  0  0  0  0  0  0  0  0
   -3.0000    2.5981    0.0000 C   0  0  0  0  0  0  0  0  0  0  0  0
   -1.5000    2.5981    0.0000 C   0  0  0  0  0  0  0  0  0  0  0  0
   -0.7500    3.8971    0.0000 C   0  0  0  0  0  0  0  0  0  0  0  0
    0.7500    3.8971    0.0000 O   0  0  0  0  0  0  0  0  0  0  0  0
    1.5000    5.1962    0.0000 C   0  0  0  0  0  0  0  0  0  0  0  0
   -1.5000    5.1962    0.0000 C   0  0  0  0  0  0  0  0  0  0  0  0
   -0.7500    6.4952    0.0000 O   0  0  0  0  0  0  0  0  0  0  0  0
   -1.5000    7.7942    0.0000 C   0  0  0  0  0  0  0  0  0  0  0  0
   -3.0000    5.1962    0.0000 C   0  0  0  0  0  0  0  0  0  0  0  0
   -3.7500    6.4952    0.0000 O   0  0  0  0  0  0  0  0  0  0  0  0
   -5.2500    6.4952    0.0000 C   0  0  0  0  0  0  0  0  0  0  0  0
   -3.7500    3.8971    0.0000 C   0  0  0  0  0  0  0  0  0  0  0  0
   -0.7500   -1.2990    0.0000 C   0  0  0  0  0  0  0  0  0  0  0  0
   -1.5000   -2.5981    0.0000 O   0  0  0  0  0  0  0  0  0  0  0  0
    0.7500   -1.2990    0.0000 C   0  0  0  0  0  0  0  0  0  0  0  0
    1.5000   -2.5981    0.0000 O   0  0  0  0  0  0  0  0  0  0  0  0
  1  2  1  0
  2  3  1  0
  3  4  2  0
  4  5  1  0
  5  6  2  0
  6  7  1  0
  7  8  2  0
  8  9  1  0
  9 10  2  0
 10 11  1  0
 11 12  1  0
 12 13  1  0
 11 14  2  0
 14 15  1  0
 15 16  1  0
 14 17  1  0
 17 18  1  0
 18 19  1  0
 17 20  2  0
  6 21  1  0
 21 22  1  0
 21 23  2  0
 23 24  1  0
 23  3  1  0
 20  9  1  0
M  END
>  <Synonyms>  (457) 
COMBRETASTATIN A-1|COMBRETASTATIN A1|NSC-600032|OXI4500

>  <Research Codes>  (457) 
NSC-600032|OXI4500

>  <Phase>  (457) 
1

>  <Applicants>  (457) 
nan

>  <USAN Stem>  (457) 
'-stat-'

>  <USAN Year>  (457) 
nan

>  <USAN Stem Definition>  (457) 
enzyme inhibitors: antihyperlipidemics (HMG-CoA inhibitors)

>  <USAN Stem Substem>  (457) 
'-stat-(-stat- (-statin))'

>  <First Approval>  (457) 
nan

>  <ATC Codes>  (457) 
nan

>  <Level 4 ATC Codes>  (457) 
nan

>  <Level 3 ATC Codes>  (457) 
nan

>  <Level 2 ATC Codes>  (457) 
nan

>  <Level 1 ATC Codes>  (457) 
nan

>  <Indication Class>  (457) 
nan

>  <Patent>  (457) 
nan

>  <Drug Type>  (457) 
1:Synthetic Small Molecule

>  <Passes Rule of Five>  (457) 
True

>  <First In Class>  (457) 
False

>  <Chirality>  (457) 
Achiral Molecule

>  <Prodrug>  (457) 
False

>  <Oral>  (457) 
False

>  <Parenteral>  (457) 
False

>  <Topical>  (457) 
False

>  <Black Box>  (457) 
False

>  <Availability Type>  (457) 
Unknown

>  <Withdrawn Year>  (457) 
nan

>  <Withdrawn Reason>  (457) 
nan

>  <Withdrawn Country>  (457) 
nan

>  <Withdrawn Class>  (457) 
nan

>  <SMILES>  (457) 
COc1ccc(/C=C\c2cc(OC)c(OC)c(OC)c2)c(O)c1O

>  <InChi Key>  (457) 
YUSYSJSHVJULID-WAYWQWQTSA-N

$$$$
CHEMBL4080228
     RDKit          2D

 31 34  0  0  0  0  0  0  0  0999 V2000
    3.7500    1.2990    0.0000 C   0  0  0  0  0  0  0  0  0  0  0  0
    3.0000   -0.0000    0.0000 O   0  0  0  0  0  0  0  0  0  0  0  0
    3.7500   -1.2990    0.0000 C   0  0  0  0  0  0  0  0  0  0  0  0
    5.2500   -1.2990    0.0000 C   0  0  0  0  0  0  0  0  0  0  0  0
    6.0000   -2.5981    0.0000 C   0  0  0  0  0  0  0  0  0  0  0  0
    7.5000   -2.5981    0.0000 C   0  0  0  0  0  0  0  0  0  0  0  0
    5.2500   -3.8971    0.0000 N   0  0  0  0  0  0  0  0  0  0  0  0
    3.7500   -3.8971    0.0000 C   0  0  0  0  0  0  0  0  0  0  0  0
    3.0000   -5.1962    0.0000 O   0  0  0  0  0  0  0  0  0  0  0  0
    3.0000   -2.5981    0.0000 C   0  0  0  0  0  0  0  0  0  0  0  0
    1.5000   -2.5981    0.0000 C   0  0  0  0  0  0  0  0  0  0  0  0
    0.7500   -1.2990    0.0000 N   0  0  0  0  0  0  0  0  0  0  0  0
    1.5000    0.0000    0.0000 C   0  0  0  0  0  0  0  0  0  0  0  0
    0.7500    1.2990    0.0000 C   0  0  0  0  0  0  0  0  0  0  0  0
   -0.7500    1.2990    0.0000 C   0  0  0  0  0  0  0  0  0  0  0  0
   -1.5000    2.5981    0.0000 C   0  0  0  0  0  0  0  0  0  0  0  0
   -0.7500    3.8971    0.0000 Cl  0  0  0  0  0  0  0  0  0  0  0  0
   -3.0000    2.5981    0.0000 C   0  0  0  0  0  0  0  0  0  0  0  0
   -3.7500    1.2990    0.0000 C   0  0  0  0  0  0  0  0  0  0  0  0
   -5.2500    1.2990    0.0000 C   0  0  0  0  0  0  0  0  0  0  0  0
   -6.0000    0.0000    0.0000 O   0  0  0  0  0  0  0  0  0  0  0  0
   -7.5000    0.0000    0.0000 C   0  0  0  0  0  0  0  0  0  0  0  0
   -6.0000    2.5981    0.0000 C   0  0  0  0  0  0  0  0  0  0  0  0
   -5.6118    4.0470    0.0000 C   0  0  0  0  0  0  0  0  0  0  0  0
   -7.0607    4.4352    0.0000 O   0  0  0  0  0  0  0  0  0  0  0  0
   -7.4489    2.9863    0.0000 C   0  0  0  0  0  0  0  0  0  0  0  0
   -3.0000    0.0000    0.0000 C   0  0  0  0  0  0  0  0  0  0  0  0
   -3.7500   -1.2990    0.0000 Cl  0  0  0  0  0  0  0  0  0  0  0  0
   -1.5000    0.0000    0.0000 C   0  0  0  0  0  0  0  0  0  0  0  0
   -0.7500   -1.2990    0.0000 C   0  0  0  0  0  0  0  0  0  0  0  0
   -1.5000   -2.5981    0.0000 O   0  0  0  0  0  0  0  0  0  0  0  0
  1  2  1  0
  2  3  1  0
  3  4  1  0
  4  5  2  0
  5  6  1  0
  5  7  1  0
  7  8  1  0
  8  9  2  0
  8 10  1  0
 10 11  1  0
 11 12  1  0
 12 13  1  0
 13 14  1  0
 14 15  1  0
 15 16  2  0
 16 17  1  0
 16 18  1  0
 18 19  2  0
 19 20  1  0
 20 21  1  6
 21 22  1  0
 20 23  1  0
 23 24  1  0
 24 25  1  0
 25 26  1  0
 19 27  1  0
 27 28  1  0
 27 29  2  0
 29 30  1  0
 30 31  2  0
 10  3  2  0
 30 12  1  0
 29 15  1  0
 26 23  1  0
M  END
>  <Synonyms>  (458) 
PF-06821497

>  <Research Codes>  (458) 
PF-06821497

>  <Phase>  (458) 
1

>  <Applicants>  (458) 
nan

>  <USAN Stem>  (458) 
nan

>  <USAN Year>  (458) 
nan

>  <USAN Stem Definition>  (458) 
nan

>  <USAN Stem Substem>  (458) 
nan

>  <First Approval>  (458) 
nan

>  <ATC Codes>  (458) 
nan

>  <Level 4 ATC Codes>  (458) 
nan

>  <Level 3 ATC Codes>  (458) 
nan

>  <Level 2 ATC Codes>  (458) 
nan

>  <Level 1 ATC Codes>  (458) 
nan

>  <Indication Class>  (458) 
nan

>  <Patent>  (458) 
nan

>  <Drug Type>  (458) 
1:Synthetic Small Molecule

>  <Passes Rule of Five>  (458) 
True

>  <First In Class>  (458) 
False

>  <Chirality>  (458) 
Single Stereoisomer

>  <Prodrug>  (458) 
False

>  <Oral>  (458) 
False

>  <Parenteral>  (458) 
False

>  <Topical>  (458) 
False

>  <Black Box>  (458) 
False

>  <Availability Type>  (458) 
Unknown

>  <Withdrawn Year>  (458) 
nan

>  <Withdrawn Reason>  (458) 
nan

>  <Withdrawn Country>  (458) 
nan

>  <Withdrawn Class>  (458) 
nan

>  <SMILES>  (458) 
COc1cc(C)[nH]c(=O)c1CN1CCc2c(Cl)cc([C@H](OC)C3COC3)c(Cl)c2C1=O

>  <InChi Key>  (458) 
RXCVUHMIWHRLDF-HXUWFJFHSA-N

$$$$
CHEMBL3786896
     RDKit          2D

 36 39  0  0  0  0  0  0  0  0999 V2000
    2.2105  -14.6866    0.0000 C   0  0  0  0  0  0  0  0  0  0  0  0
    1.7470  -13.2600    0.0000 C   0  0  0  0  0  0  0  0  0  0  0  0
    2.7507  -12.1453    0.0000 C   0  0  0  0  0  0  0  0  0  0  0  0
    4.2179  -12.4571    0.0000 O   0  0  0  0  0  0  0  0  0  0  0  0
    2.2872  -10.7187    0.0000 O   0  0  0  0  0  0  0  0  0  0  0  0
    3.2909   -9.6040    0.0000 C   0  0  0  0  0  0  0  0  0  0  0  0
    2.8273   -8.1774    0.0000 C   0  0  0  0  0  0  0  0  0  0  0  0
    3.8310   -7.0627    0.0000 O   0  0  0  0  0  0  0  0  0  0  0  0
    1.3601   -7.8655    0.0000 N   0  0  0  0  0  0  0  0  0  0  0  0
    0.2454   -8.8692    0.0000 N   0  0  0  0  0  0  0  0  0  0  0  0
   -1.0537   -8.1192    0.0000 C   0  0  0  0  0  0  0  0  0  0  0  0
   -0.7418   -6.6520    0.0000 C   0  0  0  0  0  0  0  0  0  0  0  0
    0.7500   -6.4952    0.0000 C   0  0  0  0  0  0  0  0  0  0  0  0
    1.5000   -5.1962    0.0000 C   0  0  0  0  0  0  0  0  0  0  0  0
    3.0000   -5.1962    0.0000 O   0  0  0  0  0  0  0  0  0  0  0  0
    0.7500   -3.8971    0.0000 N   0  0  0  0  0  0  0  0  0  0  0  0
    1.5000   -2.5981    0.0000 C   0  0  0  0  0  0  0  0  0  0  0  0
    0.7500   -1.2990    0.0000 C   0  0  0  0  0  0  0  0  0  0  0  0
    1.5000    0.0000    0.0000 C   0  0  0  0  0  0  0  0  0  0  0  0
    0.7500    1.2990    0.0000 C   0  0  0  0  0  0  0  0  0  0  0  0
    1.5000    2.5981    0.0000 Cl  0  0  0  0  0  0  0  0  0  0  0  0
   -0.7500    1.2990    0.0000 C   0  0  0  0  0  0  0  0  0  0  0  0
   -1.5000    0.0000    0.0000 C   0  0  0  0  0  0  0  0  0  0  0  0
   -0.7500   -1.2990    0.0000 C   0  0  0  0  0  0  0  0  0  0  0  0
   -1.5000   -2.5981    0.0000 N   0  0  0  0  0  0  0  0  0  0  0  0
   -0.8899   -3.9684    0.0000 C   0  0  0  0  0  0  0  0  0  0  0  0
   -2.0046   -4.9721    0.0000 N   0  0  0  0  0  0  0  0  0  0  0  0
   -3.3037   -4.2221    0.0000 N   0  0  0  0  0  0  0  0  0  0  0  0
   -2.9918   -2.7549    0.0000 N   0  0  0  0  0  0  0  0  0  0  0  0
    4.7581   -9.9158    0.0000 C   0  0  0  0  0  0  0  0  0  0  0  0
    5.2216  -11.3424    0.0000 C   0  0  0  0  0  0  0  0  0  0  0  0
    6.6888  -11.6543    0.0000 C   0  0  0  0  0  0  0  0  0  0  0  0
    7.6925  -10.5396    0.0000 C   0  0  0  0  0  0  0  0  0  0  0  0
    9.1597  -10.8514    0.0000 F   0  0  0  0  0  0  0  0  0  0  0  0
    7.2290   -9.1130    0.0000 C   0  0  0  0  0  0  0  0  0  0  0  0
    5.7618   -8.8011    0.0000 C   0  0  0  0  0  0  0  0  0  0  0  0
  1  2  1  0
  2  3  1  0
  3  4  2  0
  3  5  1  0
  5  6  1  0
  6  7  1  0
  7  8  2  0
  7  9  1  0
  9 10  1  0
 10 11  2  0
 11 12  1  0
 12 13  1  0
 13 14  1  0
 14 15  2  0
 14 16  1  0
 16 17  1  0
 17 18  1  0
 18 19  2  0
 19 20  1  0
 20 21  1  0
 20 22  2  0
 22 23  1  0
 23 24  2  0
 24 25  1  0
 25 26  1  0
 26 27  2  0
 27 28  1  0
 28 29  2  0
  6 30  1  0
 30 31  2  0
 31 32  1  0
 32 33  2  0
 33 34  1  0
 33 35  1  0
 35 36  2  0
 13  9  1  0
 24 18  1  0
 29 25  1  0
 36 30  1  0
M  END
>  <Synonyms>  (459) 
AZD 8165|AZD-8165|AZD8165

>  <Research Codes>  (459) 
AZD-8165|AZD8165

>  <Phase>  (459) 
1

>  <Applicants>  (459) 
nan

>  <USAN Stem>  (459) 
nan

>  <USAN Year>  (459) 
nan

>  <USAN Stem Definition>  (459) 
nan

>  <USAN Stem Substem>  (459) 
nan

>  <First Approval>  (459) 
nan

>  <ATC Codes>  (459) 
nan

>  <Level 4 ATC Codes>  (459) 
nan

>  <Level 3 ATC Codes>  (459) 
nan

>  <Level 2 ATC Codes>  (459) 
nan

>  <Level 1 ATC Codes>  (459) 
nan

>  <Indication Class>  (459) 
nan

>  <Patent>  (459) 
nan

>  <Drug Type>  (459) 
1:Synthetic Small Molecule

>  <Passes Rule of Five>  (459) 
False

>  <First In Class>  (459) 
False

>  <Chirality>  (459) 
Single Stereoisomer

>  <Prodrug>  (459) 
False

>  <Oral>  (459) 
False

>  <Parenteral>  (459) 
False

>  <Topical>  (459) 
False

>  <Black Box>  (459) 
False

>  <Availability Type>  (459) 
Unknown

>  <Withdrawn Year>  (459) 
nan

>  <Withdrawn Reason>  (459) 
nan

>  <Withdrawn Country>  (459) 
nan

>  <Withdrawn Class>  (459) 
nan

>  <SMILES>  (459) 
CCC(=O)O[C@@H](C(=O)N1N=CC[C@H]1C(=O)NCc1cc(Cl)ccc1-n1cnnn1)c1ccc(F)cc1

>  <InChi Key>  (459) 
YUHNXUAATAMVKD-UHFFFAOYSA-N

$$$$
CHEMBL150894
     RDKit          2D

 33 38  0  0  0  0  0  0  0  0999 V2000
   -6.8523  -11.3480    0.0000 C   0  0  0  0  0  0  0  0  0  0  0  0
   -5.3851  -11.6598    0.0000 C   0  0  0  0  0  0  0  0  0  0  0  0
   -4.9216  -13.0864    0.0000 C   0  0  0  0  0  0  0  0  0  0  0  0
   -4.3814  -10.5451    0.0000 O   0  0  0  0  0  0  0  0  0  0  0  0
   -2.9142  -10.8570    0.0000 C   0  0  0  0  0  0  0  0  0  0  0  0
   -1.9105   -9.7423    0.0000 C   0  0  0  0  0  0  0  0  0  0  0  0
   -0.4433  -10.0541    0.0000 C   0  0  0  0  0  0  0  0  0  0  0  0
    0.5604   -8.9394    0.0000 C   0  0  0  0  0  0  0  0  0  0  0  0
    0.0969   -7.5128    0.0000 C   0  0  0  0  0  0  0  0  0  0  0  0
   -1.3703   -7.2010    0.0000 C   0  0  0  0  0  0  0  0  0  0  0  0
   -2.3740   -8.3157    0.0000 C   0  0  0  0  0  0  0  0  0  0  0  0
   -1.5271   -5.7092    0.0000 C   0  0  0  0  0  0  0  0  0  0  0  0
   -2.7406   -4.8275    0.0000 C   0  0  0  0  0  0  0  0  0  0  0  0
   -2.5838   -3.3357    0.0000 C   0  0  0  0  0  0  0  0  0  0  0  0
   -1.2135   -2.7256    0.0000 C   0  0  0  0  0  0  0  0  0  0  0  0
    0.0000   -3.6073    0.0000 C   0  0  0  0  0  0  0  0  0  0  0  0
   -0.1568   -5.0991    0.0000 C   0  0  0  0  0  0  0  0  0  0  0  0
    0.8469   -6.2138    0.0000 N   0  0  0  0  0  0  0  0  0  0  0  0
    2.3387   -6.0570    0.0000 C   0  0  0  0  0  0  0  0  0  0  0  0
    3.2204   -7.2705    0.0000 C   0  0  0  0  0  0  0  0  0  0  0  0
    4.7121   -7.1137    0.0000 C   0  0  0  0  0  0  0  0  0  0  0  0
    5.5938   -8.3273    0.0000 O   0  0  0  0  0  0  0  0  0  0  0  0
    1.2135   -2.7256    0.0000 C   0  0  0  0  0  0  0  0  0  0  0  0
    0.7500   -1.2990    0.0000 C   0  0  0  0  0  0  0  0  0  0  0  0
    1.5000    0.0000    0.0000 C   0  0  0  0  0  0  0  0  0  0  0  0
    0.7500    1.2990    0.0000 C   0  0  0  0  0  0  0  0  0  0  0  0
   -0.7500    1.2990    0.0000 C   0  0  0  0  0  0  0  0  0  0  0  0
   -1.5000    0.0000    0.0000 C   0  0  0  0  0  0  0  0  0  0  0  0
   -0.7500   -1.2990    0.0000 C   0  0  0  0  0  0  0  0  0  0  0  0
   -3.9542   -2.7256    0.0000 C   0  0  0  0  0  0  0  0  0  0  0  0
   -4.2660   -1.2584    0.0000 O   0  0  0  0  0  0  0  0  0  0  0  0
   -4.9579   -3.8403    0.0000 N   0  0  0  0  0  0  0  0  0  0  0  0
   -4.2079   -5.1394    0.0000 C   0  0  0  0  0  0  0  0  0  0  0  0
  1  2  1  0
  2  3  1  0
  2  4  1  0
  4  5  1  0
  5  6  1  0
  6  7  2  0
  7  8  1  0
  8  9  2  0
  9 10  1  0
 10 11  2  0
 10 12  1  0
 12 13  2  0
 13 14  1  0
 14 15  2  0
 15 16  1  0
 16 17  2  0
 17 18  1  0
 18 19  1  0
 19 20  1  0
 20 21  1  0
 21 22  1  0
 16 23  1  0
 23 24  1  0
 24 25  2  0
 25 26  1  0
 26 27  2  0
 27 28  1  0
 28 29  2  0
 14 30  1  0
 30 31  2  0
 30 32  1  0
 32 33  1  0
 11  6  1  0
 17 12  1  0
 29 24  1  0
 18  9  1  0
 33 13  1  0
 29 15  1  0
M  END
>  <Synonyms>  (460) 
CEP-5214

>  <Research Codes>  (460) 
CEP-5214

>  <Phase>  (460) 
1

>  <Applicants>  (460) 
nan

>  <USAN Stem>  (460) 
nan

>  <USAN Year>  (460) 
nan

>  <USAN Stem Definition>  (460) 
nan

>  <USAN Stem Substem>  (460) 
nan

>  <First Approval>  (460) 
nan

>  <ATC Codes>  (460) 
nan

>  <Level 4 ATC Codes>  (460) 
nan

>  <Level 3 ATC Codes>  (460) 
nan

>  <Level 2 ATC Codes>  (460) 
nan

>  <Level 1 ATC Codes>  (460) 
nan

>  <Indication Class>  (460) 
nan

>  <Patent>  (460) 
nan

>  <Drug Type>  (460) 
1:Synthetic Small Molecule

>  <Passes Rule of Five>  (460) 
True

>  <First In Class>  (460) 
False

>  <Chirality>  (460) 
Achiral Molecule

>  <Prodrug>  (460) 
False

>  <Oral>  (460) 
False

>  <Parenteral>  (460) 
False

>  <Topical>  (460) 
False

>  <Black Box>  (460) 
False

>  <Availability Type>  (460) 
Unknown

>  <Withdrawn Year>  (460) 
nan

>  <Withdrawn Reason>  (460) 
nan

>  <Withdrawn Country>  (460) 
nan

>  <Withdrawn Class>  (460) 
nan

>  <SMILES>  (460) 
CC(C)OCc1ccc2c(c1)c1c3c(c4c(c1n2CCCO)Cc1ccccc1-4)C(=O)NC3

>  <InChi Key>  (460) 
MLIFNJABMANKEU-UHFFFAOYSA-N

$$$$
CHEMBL99
     RDKit          2D

 22 22  0  0  0  0  0  0  0  0999 V2000
    3.0000   -5.1962    0.0000 C   0  0  0  0  0  0  0  0  0  0  0  0
    3.7500   -3.8971    0.0000 C   0  0  0  0  0  0  0  0  0  0  0  0
    5.2500   -3.8971    0.0000 C   0  0  0  0  0  0  0  0  0  0  0  0
    6.0000   -5.1962    0.0000 C   0  0  0  0  0  0  0  0  0  0  0  0
    7.5000   -5.1962    0.0000 C   0  0  0  0  0  0  0  0  0  0  0  0
    8.2500   -3.8971    0.0000 O   0  0  0  0  0  0  0  0  0  0  0  0
    8.2500   -6.4952    0.0000 N   0  0  0  0  0  0  0  0  0  0  0  0
    9.7500   -6.4952    0.0000 O   0  0  0  0  0  0  0  0  0  0  0  0
    3.0000   -2.5981    0.0000 C   0  0  0  0  0  0  0  0  0  0  0  0
    3.7500   -1.2990    0.0000 C   0  0  0  0  0  0  0  0  0  0  0  0
    5.2500   -1.2990    0.0000 C   0  0  0  0  0  0  0  0  0  0  0  0
    3.0000    0.0000    0.0000 C   0  0  0  0  0  0  0  0  0  0  0  0
    3.7500    1.2990    0.0000 O   0  0  0  0  0  0  0  0  0  0  0  0
    1.5000    0.0000    0.0000 C   0  0  0  0  0  0  0  0  0  0  0  0
    0.7500   -1.2990    0.0000 C   0  0  0  0  0  0  0  0  0  0  0  0
   -0.7500   -1.2990    0.0000 C   0  0  0  0  0  0  0  0  0  0  0  0
   -1.5000    0.0000    0.0000 C   0  0  0  0  0  0  0  0  0  0  0  0
   -3.0000    0.0000    0.0000 N   0  0  0  0  0  0  0  0  0  0  0  0
   -3.7500    1.2990    0.0000 C   0  0  0  0  0  0  0  0  0  0  0  0
   -3.7500   -1.2990    0.0000 C   0  0  0  0  0  0  0  0  0  0  0  0
   -0.7500    1.2990    0.0000 C   0  0  0  0  0  0  0  0  0  0  0  0
    0.7500    1.2990    0.0000 C   0  0  0  0  0  0  0  0  0  0  0  0
  1  2  1  0
  2  3  2  3
  3  4  1  0
  4  5  1  0
  5  6  1  0
  5  7  2  3
  7  8  1  0
  2  9  1  0
  9 10  2  3
 10 11  1  0
 10 12  1  0
 12 13  2  0
 12 14  1  0
 14 15  2  0
 15 16  1  0
 16 17  2  0
 17 18  1  0
 18 19  1  0
 18 20  1  0
 17 21  1  0
 21 22  2  0
 22 14  1  0
M  END
>  <Synonyms>  (461) 
A-300-I|ANTIBIOTIC A-300|GNF-Pf-1011|TRICHOSTATIN|TRICHOSTATIN(S)

>  <Research Codes>  (461) 
A-300-I|ANTIBIOTIC A-300|GNF-Pf-1011

>  <Phase>  (461) 
1

>  <Applicants>  (461) 
nan

>  <USAN Stem>  (461) 
'-stat-'

>  <USAN Year>  (461) 
nan

>  <USAN Stem Definition>  (461) 
enzyme inhibitors: antihyperlipidemics (HMG-CoA inhibitors)

>  <USAN Stem Substem>  (461) 
'-stat-(-stat- (-statin))'

>  <First Approval>  (461) 
nan

>  <ATC Codes>  (461) 
nan

>  <Level 4 ATC Codes>  (461) 
nan

>  <Level 3 ATC Codes>  (461) 
nan

>  <Level 2 ATC Codes>  (461) 
nan

>  <Level 1 ATC Codes>  (461) 
nan

>  <Indication Class>  (461) 
nan

>  <Patent>  (461) 
nan

>  <Drug Type>  (461) 
1:Synthetic Small Molecule

>  <Passes Rule of Five>  (461) 
True

>  <First In Class>  (461) 
False

>  <Chirality>  (461) 
Unknown

>  <Prodrug>  (461) 
False

>  <Oral>  (461) 
False

>  <Parenteral>  (461) 
False

>  <Topical>  (461) 
False

>  <Black Box>  (461) 
False

>  <Availability Type>  (461) 
Unknown

>  <Withdrawn Year>  (461) 
nan

>  <Withdrawn Reason>  (461) 
nan

>  <Withdrawn Country>  (461) 
nan

>  <Withdrawn Class>  (461) 
nan

>  <SMILES>  (461) 
CC(/C=C/C(=O)NO)=C\[C@@H](C)C(=O)c1ccc(N(C)C)cc1

>  <InChi Key>  (461) 
SOGYGBQCZCBDAD-UHFFFAOYSA-N

$$$$
CHEMBL572284
     RDKit          2D

 29 30  0  0  0  0  0  0  0  0999 V2000
    3.7500   -1.2990    0.0000 C   0  0  0  0  0  0  0  0  0  0  0  0
    3.0000    0.0000    0.0000 O   0  0  0  0  0  0  0  0  0  0  0  0
    1.5000    0.0000    0.0000 C   0  0  0  0  0  0  0  0  0  0  0  0
    0.7500   -1.2990    0.0000 C   0  0  0  0  0  0  0  0  0  0  0  0
   -0.7500   -1.2990    0.0000 C   0  0  0  0  0  0  0  0  0  0  0  0
   -1.5000    0.0000    0.0000 C   0  0  0  0  0  0  0  0  0  0  0  0
   -3.0000    0.0000    0.0000 C   0  0  0  0  0  0  0  0  0  0  0  0
   -3.7500    1.2990    0.0000 C   0  0  0  0  0  0  0  0  0  0  0  0
   -3.0000    2.5981    0.0000 C   0  0  0  0  0  0  0  0  0  0  0  0
   -1.5000    2.5981    0.0000 C   0  0  0  0  0  0  0  0  0  0  0  0
   -0.7500    3.8971    0.0000 C   0  0  0  0  0  0  0  0  0  0  0  0
    0.7500    3.8971    0.0000 O   0  0  0  0  0  0  0  0  0  0  0  0
    1.5000    5.1962    0.0000 C   0  0  0  0  0  0  0  0  0  0  0  0
   -1.5000    5.1962    0.0000 C   0  0  0  0  0  0  0  0  0  0  0  0
   -0.7500    6.4952    0.0000 O   0  0  0  0  0  0  0  0  0  0  0  0
   -1.5000    7.7942    0.0000 C   0  0  0  0  0  0  0  0  0  0  0  0
   -3.0000    5.1962    0.0000 C   0  0  0  0  0  0  0  0  0  0  0  0
   -3.7500    6.4952    0.0000 O   0  0  0  0  0  0  0  0  0  0  0  0
   -5.2500    6.4952    0.0000 C   0  0  0  0  0  0  0  0  0  0  0  0
   -3.7500    3.8971    0.0000 C   0  0  0  0  0  0  0  0  0  0  0  0
   -0.7500    1.2990    0.0000 C   0  0  0  0  0  0  0  0  0  0  0  0
    0.7500    1.2990    0.0000 C   0  0  0  0  0  0  0  0  0  0  0  0
    1.5000    2.5981    0.0000 N   0  0  0  0  0  0  0  0  0  0  0  0
    3.0000    2.5981    0.0000 C   0  0  0  0  0  0  0  0  0  0  0  0
    3.7500    1.2990    0.0000 O   0  0  0  0  0  0  0  0  0  0  0  0
    3.7500    3.8971    0.0000 C   0  0  0  0  0  0  0  0  0  0  0  0
    3.0000    5.1962    0.0000 N   0  0  0  0  0  0  0  0  0  0  0  0
    5.2500    3.8971    0.0000 C   0  0  0  0  0  0  0  0  0  0  0  0
    6.0000    5.1962    0.0000 O   0  0  0  0  0  0  0  0  0  0  0  0
  1  2  1  0
  2  3  1  0
  3  4  2  0
  4  5  1  0
  5  6  2  0
  6  7  1  0
  7  8  2  0
  8  9  1  0
  9 10  2  0
 10 11  1  0
 11 12  1  0
 12 13  1  0
 11 14  2  0
 14 15  1  0
 15 16  1  0
 14 17  1  0
 17 18  1  0
 18 19  1  0
 17 20  2  0
  6 21  1  0
 21 22  2  0
 22 23  1  0
 23 24  1  0
 24 25  2  0
 24 26  1  0
 26 27  1  0
 26 28  1  0
 28 29  1  0
 22  3  1  0
 20  9  1  0
M  END
>  <Synonyms>  (462) 
AC7700|AVE-8062|AVE8062|OMBRABULIN

>  <Research Codes>  (462) 
AC7700|AVE-8062|AVE8062

>  <Phase>  (462) 
1

>  <Applicants>  (462) 
nan

>  <USAN Stem>  (462) 
'-bulin'

>  <USAN Year>  (462) 
nan

>  <USAN Stem Definition>  (462) 
antineoplastics (mitotic inhibitors,tubulin binders

>  <USAN Stem Substem>  (462) 
'-bulin(-bulin)'

>  <First Approval>  (462) 
nan

>  <ATC Codes>  (462) 
nan

>  <Level 4 ATC Codes>  (462) 
nan

>  <Level 3 ATC Codes>  (462) 
nan

>  <Level 2 ATC Codes>  (462) 
nan

>  <Level 1 ATC Codes>  (462) 
nan

>  <Indication Class>  (462) 
nan

>  <Patent>  (462) 
nan

>  <Drug Type>  (462) 
1:Synthetic Small Molecule

>  <Passes Rule of Five>  (462) 
True

>  <First In Class>  (462) 
False

>  <Chirality>  (462) 
Single Stereoisomer

>  <Prodrug>  (462) 
False

>  <Oral>  (462) 
False

>  <Parenteral>  (462) 
False

>  <Topical>  (462) 
False

>  <Black Box>  (462) 
False

>  <Availability Type>  (462) 
Unknown

>  <Withdrawn Year>  (462) 
nan

>  <Withdrawn Reason>  (462) 
nan

>  <Withdrawn Country>  (462) 
nan

>  <Withdrawn Class>  (462) 
nan

>  <SMILES>  (462) 
COc1ccc(/C=C\c2cc(OC)c(OC)c(OC)c2)cc1NC(=O)[C@@H](N)CO

>  <InChi Key>  (462) 
IXWNTLSTOZFSCM-WAYWQWQTSA-N

$$$$
CHEMBL3987016
     RDKit          2D

 32 35  0  0  0  0  0  0  0  0999 V2000
   -9.5918   -2.0312    0.0000 C   0  0  0  0  0  0  0  0  0  0  0  0
   -8.4771   -3.0348    0.0000 C   0  0  0  0  0  0  0  0  0  0  0  0
   -7.0505   -2.5713    0.0000 S   0  0  0  0  0  0  0  0  0  0  0  0
   -7.5140   -1.1447    0.0000 O   0  0  0  0  0  0  0  0  0  0  0  0
   -6.5870   -3.9979    0.0000 O   0  0  0  0  0  0  0  0  0  0  0  0
   -5.6239   -2.1078    0.0000 N   0  0  0  0  0  0  0  0  0  0  0  0
   -5.3120   -0.6406    0.0000 C   0  0  0  0  0  0  0  0  0  0  0  0
   -6.4268    0.3631    0.0000 C   0  0  0  0  0  0  0  0  0  0  0  0
   -6.1149    1.8303    0.0000 C   0  0  0  0  0  0  0  0  0  0  0  0
   -4.6883    2.2939    0.0000 C   0  0  0  0  0  0  0  0  0  0  0  0
   -4.3764    3.7611    0.0000 O   0  0  0  0  0  0  0  0  0  0  0  0
   -5.4912    4.7648    0.0000 C   0  0  0  0  0  0  0  0  0  0  0  0
   -5.1793    6.2320    0.0000 C   0  0  0  0  0  0  0  0  0  0  0  0
   -6.2940    7.2357    0.0000 C   0  0  0  0  0  0  0  0  0  0  0  0
   -7.7206    6.7722    0.0000 C   0  0  0  0  0  0  0  0  0  0  0  0
   -8.8353    7.7759    0.0000 F   0  0  0  0  0  0  0  0  0  0  0  0
   -8.0325    5.3050    0.0000 C   0  0  0  0  0  0  0  0  0  0  0  0
   -6.9177    4.3013    0.0000 C   0  0  0  0  0  0  0  0  0  0  0  0
   -7.2296    2.8340    0.0000 F   0  0  0  0  0  0  0  0  0  0  0  0
   -3.5736    1.2902    0.0000 C   0  0  0  0  0  0  0  0  0  0  0  0
   -2.1470    1.7537    0.0000 C   0  0  0  0  0  0  0  0  0  0  0  0
   -1.8351    3.2209    0.0000 C   0  0  0  0  0  0  0  0  0  0  0  0
   -0.4086    3.6844    0.0000 N   0  0  0  0  0  0  0  0  0  0  0  0
   -0.0967    5.1517    0.0000 C   0  0  0  0  0  0  0  0  0  0  0  0
    0.7062    2.6807    0.0000 C   0  0  0  0  0  0  0  0  0  0  0  0
    2.1328    3.1443    0.0000 O   0  0  0  0  0  0  0  0  0  0  0  0
    0.3943    1.2135    0.0000 C   0  0  0  0  0  0  0  0  0  0  0  0
    1.2760    0.0000    0.0000 N   0  0  0  0  0  0  0  0  0  0  0  0
    0.3943   -1.2135    0.0000 C   0  0  0  0  0  0  0  0  0  0  0  0
   -1.0323   -0.7500    0.0000 C   0  0  0  0  0  0  0  0  0  0  0  0
   -1.0323    0.7500    0.0000 C   0  0  0  0  0  0  0  0  0  0  0  0
   -3.8855   -0.1771    0.0000 C   0  0  0  0  0  0  0  0  0  0  0  0
  1  2  1  0
  2  3  1  0
  3  4  2  0
  3  5  2  0
  3  6  1  0
  6  7  1  0
  7  8  2  0
  8  9  1  0
  9 10  2  0
 10 11  1  0
 11 12  1  0
 12 13  2  0
 13 14  1  0
 14 15  2  0
 15 16  1  0
 15 17  1  0
 17 18  2  0
 18 19  1  0
 10 20  1  0
 20 21  1  0
 21 22  2  0
 22 23  1  0
 23 24  1  0
 23 25  1  0
 25 26  2  0
 25 27  1  0
 27 28  1  0
 28 29  1  0
 29 30  2  0
 30 31  1  0
 20 32  2  0
 32  7  1  0
 18 12  1  0
 31 21  1  0
 31 27  2  0
M  END
>  <Synonyms>  (463) 
ABBV-075|ABBV075|MIVEBRESIB

>  <Research Codes>  (463) 
ABBV-075|ABBV075

>  <Phase>  (463) 
1

>  <Applicants>  (463) 
nan

>  <USAN Stem>  (463) 
'-bresib'

>  <USAN Year>  (463) 
2018.0

>  <USAN Stem Definition>  (463) 
bromodomain and extra terminal motif (BET) inhibitors

>  <USAN Stem Substem>  (463) 
'-bresib(-bresib)'

>  <First Approval>  (463) 
nan

>  <ATC Codes>  (463) 
nan

>  <Level 4 ATC Codes>  (463) 
nan

>  <Level 3 ATC Codes>  (463) 
nan

>  <Level 2 ATC Codes>  (463) 
nan

>  <Level 1 ATC Codes>  (463) 
nan

>  <Indication Class>  (463) 
nan

>  <Patent>  (463) 
nan

>  <Drug Type>  (463) 
1:Synthetic Small Molecule

>  <Passes Rule of Five>  (463) 
True

>  <First In Class>  (463) 
False

>  <Chirality>  (463) 
Achiral Molecule

>  <Prodrug>  (463) 
False

>  <Oral>  (463) 
False

>  <Parenteral>  (463) 
False

>  <Topical>  (463) 
False

>  <Black Box>  (463) 
False

>  <Availability Type>  (463) 
Unknown

>  <Withdrawn Year>  (463) 
nan

>  <Withdrawn Reason>  (463) 
nan

>  <Withdrawn Country>  (463) 
nan

>  <Withdrawn Class>  (463) 
nan

>  <SMILES>  (463) 
CCS(=O)(=O)Nc1ccc(Oc2ccc(F)cc2F)c(-c2cn(C)c(=O)c3[nH]ccc23)c1

>  <InChi Key>  (463) 
RDONXGFGWSSFMY-UHFFFAOYSA-N

$$$$
CHEMBL500853
     RDKit          2D

 47 52  0  0  0  0  0  0  0  0999 V2000
   10.2760    5.1962    0.0000 C   0  0  0  0  0  0  0  0  0  0  0  0
    9.5260    3.8971    0.0000 C   0  0  0  0  0  0  0  0  0  0  0  0
    8.0260    3.8971    0.0000 C   0  0  0  0  0  0  0  0  0  0  0  0
    7.2760    2.5981    0.0000 C   0  0  0  0  0  0  0  0  0  0  0  0
    5.7760    2.5981    0.0000 C   0  0  0  0  0  0  0  0  0  0  0  0
    5.0260    1.2990    0.0000 C   0  0  0  0  0  0  0  0  0  0  0  0
    3.5260    1.2990    0.0000 O   0  0  0  0  0  0  0  0  0  0  0  0
    2.7760    0.0000    0.0000 C   0  0  0  0  0  0  0  0  0  0  0  0
    3.5260   -1.2990    0.0000 C   0  0  0  0  0  0  0  0  0  0  0  0
    1.2760    0.0000    0.0000 C   0  0  0  0  0  0  0  0  0  0  0  0
    0.3943    1.2135    0.0000 C   0  0  0  0  0  0  0  0  0  0  0  0
    0.8578    2.6401    0.0000 C   0  0  0  0  0  0  0  0  0  0  0  0
   -1.0323    0.7500    0.0000 C   0  0  0  0  0  0  0  0  0  0  0  0
   -2.7425    1.6861    0.0000 C   0  0  0  0  0  0  0  0  0  0  0  0
   -4.2413    1.6272    0.0000 C   0  0  0  0  0  0  0  0  0  0  0  0
   -5.6035    0.9992    0.0000 N   0  0  0  0  0  0  0  0  0  0  0  0
   -6.6217   -0.1023    0.0000 C   0  0  0  0  0  0  0  0  0  0  0  0
   -7.1409   -1.5096    0.0000 C   0  0  0  0  0  0  0  0  0  0  0  0
   -7.0820   -3.0084    0.0000 C   0  0  0  0  0  0  0  0  0  0  0  0
   -6.4540   -4.3706    0.0000 N   0  0  0  0  0  0  0  0  0  0  0  0
   -5.3525   -5.3888    0.0000 C   0  0  0  0  0  0  0  0  0  0  0  0
   -3.9452   -5.9080    0.0000 C   0  0  0  0  0  0  0  0  0  0  0  0
   -2.4464   -5.8491    0.0000 C   0  0  0  0  0  0  0  0  0  0  0  0
   -1.0842   -5.2211    0.0000 N   0  0  0  0  0  0  0  0  0  0  0  0
   -0.0660   -4.1197    0.0000 C   0  0  0  0  0  0  0  0  0  0  0  0
    0.4532   -2.7124    0.0000 C   0  0  0  0  0  0  0  0  0  0  0  0
    0.3943   -1.2135    0.0000 C   0  0  0  0  0  0  0  0  0  0  0  0
   -1.0323   -0.7500    0.0000 N   0  0  0  0  0  0  0  0  0  0  0  0
    0.3975   -5.5462    0.0000 C   0  0  0  0  0  0  0  0  0  0  0  0
    1.8241   -6.0098    0.0000 C   0  0  0  0  0  0  0  0  0  0  0  0
   -0.8160   -6.4279    0.0000 C   0  0  0  0  0  0  0  0  0  0  0  0
   -0.8160   -7.9279    0.0000 C   0  0  0  0  0  0  0  0  0  0  0  0
   -2.1150   -8.6779    0.0000 C   0  0  0  0  0  0  0  0  0  0  0  0
   -6.8461   -5.5278    0.0000 C   0  0  0  0  0  0  0  0  0  0  0  0
   -7.6115   -6.8178    0.0000 C   0  0  0  0  0  0  0  0  0  0  0  0
   -8.4893   -3.5276    0.0000 C   0  0  0  0  0  0  0  0  0  0  0  0
   -9.4179   -2.3496    0.0000 C   0  0  0  0  0  0  0  0  0  0  0  0
  -10.9168   -2.4085    0.0000 O   0  0  0  0  0  0  0  0  0  0  0  0
   -8.5846   -1.1024    0.0000 C   0  0  0  0  0  0  0  0  0  0  0  0
   -7.0852    1.3243    0.0000 C   0  0  0  0  0  0  0  0  0  0  0  0
   -8.5118    1.7878    0.0000 C   0  0  0  0  0  0  0  0  0  0  0  0
   -8.8237    3.2550    0.0000 C   0  0  0  0  0  0  0  0  0  0  0  0
  -10.2503    3.7186    0.0000 C   0  0  0  0  0  0  0  0  0  0  0  0
  -11.3650    2.7149    0.0000 O   0  0  0  0  0  0  0  0  0  0  0  0
  -10.5622    5.1858    0.0000 O   0  0  0  0  0  0  0  0  0  0  0  0
   -5.8717    2.2060    0.0000 C   0  0  0  0  0  0  0  0  0  0  0  0
   -5.8717    3.7060    0.0000 C   0  0  0  0  0  0  0  0  0  0  0  0
  1  2  1  0
  2  3  1  0
  3  4  1  0
  4  5  1  0
  5  6  1  0
  6  7  1  0
  7  8  1  0
  8  9  1  0
  8 10  1  0
 10 11  2  0
 11 12  1  0
 11 13  1  0
 13 14  2  0
 14 15  1  0
 15 16  2  0
 16 17  1  0
 17 18  2  0
 18 19  1  0
 19 20  1  0
 20 21  1  0
 21 22  1  0
 22 23  2  0
 23 24  1  0
 24 25  1  0
 25 26  2  0
 26 27  1  0
 27 28  2  0
 25 29  1  0
 29 30  1  0
 29 31  2  0
 31 32  1  0
 32 33  1  0
 21 34  2  0
 34 35  1  0
 34 36  1  0
 36 37  1  0
 37 38  1  0
 37 39  2  0
 17 40  1  0
 40 41  1  0
 41 42  1  0
 42 43  1  0
 43 44  2  0
 43 45  1  0
 40 46  1  0
 46 47  1  6
 27 10  1  0
 28 13  1  0
 46 15  1  0
 39 18  1  0
 36 19  2  0
 31 23  1  0
M  END
>  <Synonyms>  (464) 
HPPH

>  <Research Codes>  (464) 
nan

>  <Phase>  (464) 
1

>  <Applicants>  (464) 
nan

>  <USAN Stem>  (464) 
nan

>  <USAN Year>  (464) 
nan

>  <USAN Stem Definition>  (464) 
nan

>  <USAN Stem Substem>  (464) 
nan

>  <First Approval>  (464) 
nan

>  <ATC Codes>  (464) 
nan

>  <Level 4 ATC Codes>  (464) 
nan

>  <Level 3 ATC Codes>  (464) 
nan

>  <Level 2 ATC Codes>  (464) 
nan

>  <Level 1 ATC Codes>  (464) 
nan

>  <Indication Class>  (464) 
nan

>  <Patent>  (464) 
nan

>  <Drug Type>  (464) 
7:Natural Product-derived

>  <Passes Rule of Five>  (464) 
False

>  <First In Class>  (464) 
False

>  <Chirality>  (464) 
Racemic Mixture

>  <Prodrug>  (464) 
False

>  <Oral>  (464) 
False

>  <Parenteral>  (464) 
False

>  <Topical>  (464) 
False

>  <Black Box>  (464) 
False

>  <Availability Type>  (464) 
Unknown

>  <Withdrawn Year>  (464) 
nan

>  <Withdrawn Reason>  (464) 
nan

>  <Withdrawn Country>  (464) 
nan

>  <Withdrawn Class>  (464) 
nan

>  <SMILES>  (464) 
CCCCCCOC(C)c1c(C)c2cc3nc(c4c5[nH]c(cc6nc(cc1[nH]2)C(C)=C6CC)c(C)c5C(=O)C4)[C@@H](CCC(=O)O)[C@@H]3C

>  <InChi Key>  (464) 
FXEQJYGZTGNTTL-YFPLAWBCSA-N

$$$$
CHEMBL2041980
     RDKit          2D

 27 29  0  0  0  0  0  0  0  0999 V2000
    4.5000    0.0000    0.0000 C   0  0  0  0  0  0  0  0  0  0  0  0
    3.0000    0.0000    0.0000 S   0  0  0  0  0  0  0  0  0  0  0  0
    3.0000    1.5000    0.0000 O   0  0  0  0  0  0  0  0  0  0  0  0
    3.0000   -1.5000    0.0000 O   0  0  0  0  0  0  0  0  0  0  0  0
    1.5000    0.0000    0.0000 C   0  0  0  0  0  0  0  0  0  0  0  0
    0.7500   -1.2990    0.0000 C   0  0  0  0  0  0  0  0  0  0  0  0
   -0.7500   -1.2990    0.0000 C   0  0  0  0  0  0  0  0  0  0  0  0
   -1.5000    0.0000    0.0000 C   0  0  0  0  0  0  0  0  0  0  0  0
   -3.0000    0.0000    0.0000 C   0  0  0  0  0  0  0  0  0  0  0  0
   -3.7500    1.2990    0.0000 C   0  0  0  0  0  0  0  0  0  0  0  0
   -5.2500    1.2990    0.0000 N   0  0  0  0  0  0  0  0  0  0  0  0
   -6.0000    0.0000    0.0000 C   0  0  0  0  0  0  0  0  0  0  0  0
   -7.5000    0.0000    0.0000 N   0  0  0  0  0  0  0  0  0  0  0  0
   -5.2500   -1.2990    0.0000 C   0  0  0  0  0  0  0  0  0  0  0  0
   -6.0000   -2.5981    0.0000 C   0  0  0  0  0  0  0  0  0  0  0  0
   -7.5000   -2.5981    0.0000 C   0  0  0  0  0  0  0  0  0  0  0  0
   -8.2500   -3.8971    0.0000 C   0  0  0  0  0  0  0  0  0  0  0  0
   -7.5000   -5.1962    0.0000 C   0  0  0  0  0  0  0  0  0  0  0  0
   -8.2500   -6.4952    0.0000 C   0  0  0  0  0  0  0  0  0  0  0  0
   -9.0000   -7.7942    0.0000 F   0  0  0  0  0  0  0  0  0  0  0  0
   -9.5490   -5.7452    0.0000 F   0  0  0  0  0  0  0  0  0  0  0  0
   -6.9510   -7.2452    0.0000 F   0  0  0  0  0  0  0  0  0  0  0  0
   -6.0000   -5.1962    0.0000 N   0  0  0  0  0  0  0  0  0  0  0  0
   -5.2500   -3.8971    0.0000 C   0  0  0  0  0  0  0  0  0  0  0  0
   -3.7500   -1.2990    0.0000 C   0  0  0  0  0  0  0  0  0  0  0  0
   -0.7500    1.2990    0.0000 C   0  0  0  0  0  0  0  0  0  0  0  0
    0.7500    1.2990    0.0000 C   0  0  0  0  0  0  0  0  0  0  0  0
  1  2  1  0
  2  3  2  0
  2  4  2  0
  2  5  1  0
  5  6  2  0
  6  7  1  0
  7  8  2  0
  8  9  1  0
  9 10  2  0
 10 11  1  0
 11 12  1  0
 12 13  2  0
 12 14  1  0
 14 15  1  0
 15 16  2  0
 16 17  1  0
 17 18  2  0
 18 19  1  0
 19 20  1  0
 19 21  1  0
 19 22  1  0
 18 23  1  0
 23 24  2  0
 14 25  2  0
  8 26  1  0
 26 27  2  0
 27  5  1  0
 25  9  1  0
 24 15  1  0
M  END
>  <Synonyms>  (465) 
J3.367.891F|MMV-390048

>  <Research Codes>  (465) 
J3.367.891F

>  <Phase>  (465) 
1

>  <Applicants>  (465) 
nan

>  <USAN Stem>  (465) 
nan

>  <USAN Year>  (465) 
nan

>  <USAN Stem Definition>  (465) 
nan

>  <USAN Stem Substem>  (465) 
nan

>  <First Approval>  (465) 
nan

>  <ATC Codes>  (465) 
nan

>  <Level 4 ATC Codes>  (465) 
nan

>  <Level 3 ATC Codes>  (465) 
nan

>  <Level 2 ATC Codes>  (465) 
nan

>  <Level 1 ATC Codes>  (465) 
nan

>  <Indication Class>  (465) 
nan

>  <Patent>  (465) 
nan

>  <Drug Type>  (465) 
1:Synthetic Small Molecule

>  <Passes Rule of Five>  (465) 
True

>  <First In Class>  (465) 
False

>  <Chirality>  (465) 
Achiral Molecule

>  <Prodrug>  (465) 
False

>  <Oral>  (465) 
False

>  <Parenteral>  (465) 
False

>  <Topical>  (465) 
False

>  <Black Box>  (465) 
False

>  <Availability Type>  (465) 
Unknown

>  <Withdrawn Year>  (465) 
nan

>  <Withdrawn Reason>  (465) 
nan

>  <Withdrawn Country>  (465) 
nan

>  <Withdrawn Class>  (465) 
nan

>  <SMILES>  (465) 
CS(=O)(=O)c1ccc(-c2cnc(N)c(-c3ccc(C(F)(F)F)nc3)c2)cc1

>  <InChi Key>  (465) 
RTJQABCNNLMCJF-UHFFFAOYSA-N

$$$$
CHEMBL284642
     RDKit          2D

 58 67  0  0  0  0  0  0  0  0999 V2000
    2.7760    0.0000    0.0000 C   0  0  0  0  0  0  0  0  0  0  0  0
    1.2760    0.0000    0.0000 C   0  0  0  0  0  0  0  0  0  0  0  0
    0.3943    1.2135    0.0000 C   0  0  0  0  0  0  0  0  0  0  0  0
   -1.0323    0.7500    0.0000 N   0  0  0  0  0  0  0  0  0  0  0  0
   -1.0323   -0.7500    0.0000 C   0  0  0  0  0  0  0  0  0  0  0  0
   -2.1470   -1.7537    0.0000 C   0  0  0  0  0  0  0  0  0  0  0  0
   -3.5736   -1.2902    0.0000 O   0  0  0  0  0  0  0  0  0  0  0  0
   -1.8351   -3.2209    0.0000 C   0  0  0  0  0  0  0  0  0  0  0  0
   -0.4086   -3.6844    0.0000 C   0  0  0  0  0  0  0  0  0  0  0  0
    0.7062   -2.6807    0.0000 C   0  0  0  0  0  0  0  0  0  0  0  0
    0.3943   -1.2135    0.0000 C   0  0  0  0  0  0  0  0  0  0  0  0
    2.0052   -3.4307    0.0000 C   0  0  0  0  0  0  0  0  0  0  0  0
    3.3755   -2.8206    0.0000 C   0  0  0  0  0  0  0  0  0  0  0  0
    4.5890   -3.7023    0.0000 Cl  0  0  0  0  0  0  0  0  0  0  0  0
    1.6933   -4.8980    0.0000 C   0  0  0  0  0  0  0  0  0  0  0  0
    0.2016   -5.0548    0.0000 N   0  0  0  0  0  0  0  0  0  0  0  0
   -0.5484   -6.3538    0.0000 C   0  0  0  0  0  0  0  0  0  0  0  0
   -2.0484   -6.3538    0.0000 O   0  0  0  0  0  0  0  0  0  0  0  0
    0.2016   -7.6528    0.0000 C   0  0  0  0  0  0  0  0  0  0  0  0
   -0.4086   -9.0232    0.0000 C   0  0  0  0  0  0  0  0  0  0  0  0
    0.7062  -10.0269    0.0000 C   0  0  0  0  0  0  0  0  0  0  0  0
    0.7062  -11.5269    0.0000 C   0  0  0  0  0  0  0  0  0  0  0  0
    2.0052  -12.2769    0.0000 C   0  0  0  0  0  0  0  0  0  0  0  0
    2.0052  -13.7769    0.0000 N   0  0  0  0  0  0  0  0  0  0  0  0
    0.7062  -14.5269    0.0000 C   0  0  0  0  0  0  0  0  0  0  0  0
   -0.5929  -13.7769    0.0000 O   0  0  0  0  0  0  0  0  0  0  0  0
    0.7062  -16.0269    0.0000 N   0  0  0  0  0  0  0  0  0  0  0  0
   -0.5929  -16.7769    0.0000 C   0  0  0  0  0  0  0  0  0  0  0  0
   -1.8919  -16.0269    0.0000 C   0  0  0  0  0  0  0  0  0  0  0  0
   -3.1909  -16.7769    0.0000 C   0  0  0  0  0  0  0  0  0  0  0  0
   -3.1909  -18.2769    0.0000 C   0  0  0  0  0  0  0  0  0  0  0  0
   -4.3057  -19.2805    0.0000 N   0  0  0  0  0  0  0  0  0  0  0  0
   -3.6956  -20.6509    0.0000 C   0  0  0  0  0  0  0  0  0  0  0  0
   -4.4456  -21.9499    0.0000 C   0  0  0  0  0  0  0  0  0  0  0  0
   -3.6956  -23.2489    0.0000 O   0  0  0  0  0  0  0  0  0  0  0  0
   -5.9456  -21.9499    0.0000 N   0  0  0  0  0  0  0  0  0  0  0  0
   -6.8272  -20.7364    0.0000 C   0  0  0  0  0  0  0  0  0  0  0  0
   -8.2538  -21.1999    0.0000 C   0  0  0  0  0  0  0  0  0  0  0  0
   -9.4673  -20.3182    0.0000 C   0  0  0  0  0  0  0  0  0  0  0  0
   -9.3106  -18.8264    0.0000 Cl  0  0  0  0  0  0  0  0  0  0  0  0
   -8.2538  -22.6999    0.0000 C   0  0  0  0  0  0  0  0  0  0  0  0
   -6.8272  -23.1634    0.0000 C   0  0  0  0  0  0  0  0  0  0  0  0
   -6.5154  -24.6307    0.0000 C   0  0  0  0  0  0  0  0  0  0  0  0
   -7.6301  -25.6343    0.0000 C   0  0  0  0  0  0  0  0  0  0  0  0
   -7.3182  -27.1016    0.0000 O   0  0  0  0  0  0  0  0  0  0  0  0
   -9.0567  -25.1708    0.0000 C   0  0  0  0  0  0  0  0  0  0  0  0
  -10.3557  -25.9208    0.0000 N   0  0  0  0  0  0  0  0  0  0  0  0
  -11.4704  -24.9171    0.0000 C   0  0  0  0  0  0  0  0  0  0  0  0
  -10.8603  -23.5468    0.0000 C   0  0  0  0  0  0  0  0  0  0  0  0
  -11.6103  -22.2478    0.0000 C   0  0  0  0  0  0  0  0  0  0  0  0
   -9.3685  -23.7036    0.0000 C   0  0  0  0  0  0  0  0  0  0  0  0
   -2.2038  -20.4941    0.0000 C   0  0  0  0  0  0  0  0  0  0  0  0
   -1.8919  -19.0269    0.0000 C   0  0  0  0  0  0  0  0  0  0  0  0
   -0.5929  -18.2769    0.0000 C   0  0  0  0  0  0  0  0  0  0  0  0
    3.3042  -11.5269    0.0000 C   0  0  0  0  0  0  0  0  0  0  0  0
    3.3042  -10.0269    0.0000 C   0  0  0  0  0  0  0  0  0  0  0  0
    2.0052   -9.2769    0.0000 C   0  0  0  0  0  0  0  0  0  0  0  0
    1.6933   -7.8096    0.0000 N   0  0  0  0  0  0  0  0  0  0  0  0
  1  2  1  0
  2  3  2  0
  3  4  1  0
  4  5  1  0
  5  6  2  0
  6  7  1  0
  6  8  1  0
  8  9  2  0
  9 10  1  0
 10 11  2  0
 10 12  1  0
 12 13  1  6
 13 14  1  0
 12 15  1  0
 15 16  1  0
 16 17  1  0
 17 18  2  0
 17 19  1  0
 19 20  2  0
 20 21  1  0
 21 22  2  0
 22 23  1  0
 23 24  1  0
 24 25  1  0
 25 26  2  0
 25 27  1  0
 27 28  1  0
 28 29  2  0
 29 30  1  0
 30 31  2  0
 31 32  1  0
 32 33  1  0
 33 34  1  0
 34 35  2  0
 34 36  1  0
 36 37  1  0
 37 38  1  0
 38 39  1  6
 39 40  1  0
 38 41  1  0
 41 42  2  0
 42 43  1  0
 43 44  2  0
 44 45  1  0
 44 46  1  0
 46 47  1  0
 47 48  1  0
 48 49  2  0
 49 50  1  0
 49 51  1  0
 33 52  2  0
 52 53  1  0
 53 54  2  0
 23 55  2  0
 55 56  1  0
 56 57  2  0
 57 58  1  0
 11  2  1  0
 58 19  1  0
 11  5  1  0
 57 21  1  0
 16  9  1  0
 54 28  1  0
 53 31  1  0
 42 36  1  0
 51 46  2  0
 51 41  1  0
M  END
>  <Synonyms>  (466) 
BIZELESIN|U 77779|U-77779

>  <Research Codes>  (466) 
U 77779|U-77779

>  <Phase>  (466) 
1

>  <Applicants>  (466) 
nan

>  <USAN Stem>  (466) 
nan

>  <USAN Year>  (466) 
1992.0

>  <USAN Stem Definition>  (466) 
nan

>  <USAN Stem Substem>  (466) 
nan

>  <First Approval>  (466) 
nan

>  <ATC Codes>  (466) 
nan

>  <Level 4 ATC Codes>  (466) 
nan

>  <Level 3 ATC Codes>  (466) 
nan

>  <Level 2 ATC Codes>  (466) 
nan

>  <Level 1 ATC Codes>  (466) 
nan

>  <Indication Class>  (466) 
Antineoplastic

>  <Patent>  (466) 
nan

>  <Drug Type>  (466) 
1:Synthetic Small Molecule

>  <Passes Rule of Five>  (466) 
False

>  <First In Class>  (466) 
False

>  <Chirality>  (466) 
Single Stereoisomer

>  <Prodrug>  (466) 
False

>  <Oral>  (466) 
False

>  <Parenteral>  (466) 
False

>  <Topical>  (466) 
False

>  <Black Box>  (466) 
False

>  <Availability Type>  (466) 
Unknown

>  <Withdrawn Year>  (466) 
nan

>  <Withdrawn Reason>  (466) 
nan

>  <Withdrawn Country>  (466) 
nan

>  <Withdrawn Class>  (466) 
nan

>  <SMILES>  (466) 
Cc1c[nH]c2c(O)cc3c(c12)[C@H](CCl)CN3C(=O)c1cc2cc(NC(=O)Nc3ccc4[nH]c(C(=O)N5C[C@@H](CCl)c6c5cc(O)c5[nH]cc(C)c65)cc4c3)ccc2[nH]1

>  <InChi Key>  (466) 
FONKWHRXTPJODV-DNQXCXABSA-N

$$$$
CHEMBL405130
     RDKit          2D

 22 24  0  0  0  0  0  0  0  0999 V2000
    0.7500   -6.4952    0.0000 C   0  0  0  0  0  0  0  0  0  0  0  0
    1.5000   -5.1962    0.0000 O   0  0  0  0  0  0  0  0  0  0  0  0
    0.7500   -3.8971    0.0000 C   0  0  0  0  0  0  0  0  0  0  0  0
    1.5000   -2.5981    0.0000 C   0  0  0  0  0  0  0  0  0  0  0  0
    0.7500   -1.2990    0.0000 C   0  0  0  0  0  0  0  0  0  0  0  0
    1.5000    0.0000    0.0000 N   0  0  0  0  0  0  0  0  0  0  0  0
    0.7500    1.2990    0.0000 C   0  0  0  0  0  0  0  0  0  0  0  0
   -0.7500    1.2990    0.0000 N   0  0  0  0  0  0  0  0  0  0  0  0
   -1.5000    0.0000    0.0000 C   0  0  0  0  0  0  0  0  0  0  0  0
   -3.0000    0.0000    0.0000 N   0  0  0  0  0  0  0  0  0  0  0  0
   -3.7500    1.2990    0.0000 C   0  0  0  0  0  0  0  0  0  0  0  0
   -3.0000    2.5981    0.0000 C   0  0  0  0  0  0  0  0  0  0  0  0
   -3.7500    3.8971    0.0000 C   0  0  0  0  0  0  0  0  0  0  0  0
   -5.2500    3.8971    0.0000 C   0  0  0  0  0  0  0  0  0  0  0  0
   -6.0000    5.1962    0.0000 O   0  0  0  0  0  0  0  0  0  0  0  0
   -6.0000    2.5981    0.0000 C   0  0  0  0  0  0  0  0  0  0  0  0
   -5.2500    1.2990    0.0000 C   0  0  0  0  0  0  0  0  0  0  0  0
   -0.7500   -1.2990    0.0000 C   0  0  0  0  0  0  0  0  0  0  0  0
   -1.5000   -2.5981    0.0000 C   0  0  0  0  0  0  0  0  0  0  0  0
   -0.7500   -3.8971    0.0000 C   0  0  0  0  0  0  0  0  0  0  0  0
   -1.5000   -5.1962    0.0000 O   0  0  0  0  0  0  0  0  0  0  0  0
   -3.0000   -5.1962    0.0000 C   0  0  0  0  0  0  0  0  0  0  0  0
  1  2  1  0
  2  3  1  0
  3  4  2  0
  4  5  1  0
  5  6  1  0
  6  7  1  0
  7  8  2  0
  8  9  1  0
  9 10  2  3
 10 11  1  0
 11 12  2  0
 12 13  1  0
 13 14  2  0
 14 15  1  0
 14 16  1  0
 16 17  2  0
  9 18  1  0
 18 19  1  0
 19 20  2  0
 20 21  1  0
 21 22  1  0
 20  3  1  0
 18  5  2  0
 17 11  1  0
M  END
>  <Synonyms>  (467) 
WHI-P131

>  <Research Codes>  (467) 
WHI-P131

>  <Phase>  (467) 
1

>  <Applicants>  (467) 
nan

>  <USAN Stem>  (467) 
nan

>  <USAN Year>  (467) 
nan

>  <USAN Stem Definition>  (467) 
nan

>  <USAN Stem Substem>  (467) 
nan

>  <First Approval>  (467) 
nan

>  <ATC Codes>  (467) 
nan

>  <Level 4 ATC Codes>  (467) 
nan

>  <Level 3 ATC Codes>  (467) 
nan

>  <Level 2 ATC Codes>  (467) 
nan

>  <Level 1 ATC Codes>  (467) 
nan

>  <Indication Class>  (467) 
nan

>  <Patent>  (467) 
nan

>  <Drug Type>  (467) 
1:Synthetic Small Molecule

>  <Passes Rule of Five>  (467) 
True

>  <First In Class>  (467) 
False

>  <Chirality>  (467) 
Achiral Molecule

>  <Prodrug>  (467) 
False

>  <Oral>  (467) 
False

>  <Parenteral>  (467) 
False

>  <Topical>  (467) 
False

>  <Black Box>  (467) 
False

>  <Availability Type>  (467) 
Unknown

>  <Withdrawn Year>  (467) 
nan

>  <Withdrawn Reason>  (467) 
nan

>  <Withdrawn Country>  (467) 
nan

>  <Withdrawn Class>  (467) 
nan

>  <SMILES>  (467) 
COc1cc2ncnc(Nc3ccc(O)cc3)c2cc1OC

>  <InChi Key>  (467) 
HOZUXBLMYUPGPZ-UHFFFAOYSA-N

$$$$
CHEMBL1169490
     RDKit          2D

 16 17  0  0  0  0  0  0  0  0999 V2000
    3.0000    0.0000    0.0000 N   0  0  0  0  0  0  0  0  0  0  0  0
    1.5000    0.0000    0.0000 C   0  0  0  0  0  0  0  0  0  0  0  0
    0.7500   -1.2990    0.0000 C   0  0  0  0  0  0  0  0  0  0  0  0
   -0.7500   -1.2990    0.0000 C   0  0  0  0  0  0  0  0  0  0  0  0
   -1.5000    0.0000    0.0000 N   0  0  0  0  0  0  0  0  0  0  0  0
   -3.0000    0.0000    0.0000 C   0  0  0  0  0  0  0  0  0  0  0  0
   -3.8817   -1.2135    0.0000 C   0  0  0  0  0  0  0  0  0  0  0  0
   -5.3083   -0.7500    0.0000 C   0  0  0  0  0  0  0  0  0  0  0  0
   -6.5218   -1.6317    0.0000 O   0  0  0  0  0  0  0  0  0  0  0  0
   -5.3083    0.7500    0.0000 C   0  0  0  0  0  0  0  0  0  0  0  0
   -6.5218    1.6317    0.0000 C   0  0  0  0  0  0  0  0  0  0  0  0
   -6.3650    3.1235    0.0000 O   0  0  0  0  0  0  0  0  0  0  0  0
   -3.8817    1.2135    0.0000 S   0  0  0  0  0  0  0  0  0  0  0  0
   -0.7500    1.2990    0.0000 C   0  0  0  0  0  0  0  0  0  0  0  0
   -1.5000    2.5981    0.0000 O   0  0  0  0  0  0  0  0  0  0  0  0
    0.7500    1.2990    0.0000 N   0  0  0  0  0  0  0  0  0  0  0  0
  1  2  2  0
  2  3  1  0
  3  4  2  0
  4  5  1  0
  6  5  1  1
  6  7  1  0
  7  8  1  0
  8  9  1  6
  8 10  1  0
 10 11  1  1
 11 12  1  0
 10 13  1  0
  5 14  1  0
 14 15  2  0
 14 16  1  0
 16  2  1  0
 13  6  1  0
M  END
>  <Synonyms>  (468) 
4'-THIO-2'-DEOXYCYTIDINE|NSC-764276|TDCYD

>  <Research Codes>  (468) 
NSC-764276

>  <Phase>  (468) 
1

>  <Applicants>  (468) 
nan

>  <USAN Stem>  (468) 
'-tidine'

>  <USAN Year>  (468) 
nan

>  <USAN Stem Definition>  (468) 
H2-receptor antagonists (cimetidine type)

>  <USAN Stem Substem>  (468) 
'-tidine(-tidine)'

>  <First Approval>  (468) 
nan

>  <ATC Codes>  (468) 
nan

>  <Level 4 ATC Codes>  (468) 
nan

>  <Level 3 ATC Codes>  (468) 
nan

>  <Level 2 ATC Codes>  (468) 
nan

>  <Level 1 ATC Codes>  (468) 
nan

>  <Indication Class>  (468) 
nan

>  <Patent>  (468) 
nan

>  <Drug Type>  (468) 
7:Natural Product-derived

>  <Passes Rule of Five>  (468) 
True

>  <First In Class>  (468) 
False

>  <Chirality>  (468) 
Single Stereoisomer

>  <Prodrug>  (468) 
False

>  <Oral>  (468) 
False

>  <Parenteral>  (468) 
False

>  <Topical>  (468) 
False

>  <Black Box>  (468) 
False

>  <Availability Type>  (468) 
Unknown

>  <Withdrawn Year>  (468) 
nan

>  <Withdrawn Reason>  (468) 
nan

>  <Withdrawn Country>  (468) 
nan

>  <Withdrawn Class>  (468) 
nan

>  <SMILES>  (468) 
Nc1ccn([C@H]2C[C@H](O)[C@@H](CO)S2)c(=O)n1

>  <InChi Key>  (468) 
MOMUJZRKXYLWMH-SHYZEUOFSA-N

$$$$
CHEMBL480558
     RDKit          2D

 18 18  0  0  0  0  0  0  0  0999 V2000
    8.7760    2.5981    0.0000 C   0  0  0  0  0  0  0  0  0  0  0  0
    7.2760    2.5981    0.0000 C   0  0  0  0  0  0  0  0  0  0  0  0
    6.5260    1.2990    0.0000 C   0  0  0  0  0  0  0  0  0  0  0  0
    7.2760   -0.0000    0.0000 C   0  0  0  0  0  0  0  0  0  0  0  0
    8.7760   -0.0000    0.0000 C   0  0  0  0  0  0  0  0  0  0  0  0
    5.0260    1.2990    0.0000 C   0  0  0  0  0  0  0  0  0  0  0  0
    4.2760    2.5981    0.0000 C   0  0  0  0  0  0  0  0  0  0  0  0
    5.0260    3.8971    0.0000 O   0  0  0  0  0  0  0  0  0  0  0  0
    4.2760    0.0000    0.0000 N   0  0  0  0  0  0  0  0  0  0  0  0
    2.7760    0.0000    0.0000 S   0  0  0  0  0  0  0  0  0  0  0  0
    2.7760   -1.5000    0.0000 O   0  0  0  0  0  0  0  0  0  0  0  0
    2.7760    1.5000    0.0000 O   0  0  0  0  0  0  0  0  0  0  0  0
    1.2760    0.0000    0.0000 C   0  0  0  0  0  0  0  0  0  0  0  0
    0.3943    1.2135    0.0000 C   0  0  0  0  0  0  0  0  0  0  0  0
   -1.0323    0.7500    0.0000 C   0  0  0  0  0  0  0  0  0  0  0  0
   -1.0323   -0.7500    0.0000 C   0  0  0  0  0  0  0  0  0  0  0  0
   -2.2458   -1.6317    0.0000 Cl  0  0  0  0  0  0  0  0  0  0  0  0
    0.3943   -1.2135    0.0000 S   0  0  0  0  0  0  0  0  0  0  0  0
  1  2  1  0
  2  3  1  0
  3  4  1  0
  4  5  1  0
  3  6  1  0
  6  7  1  6
  7  8  1  0
  6  9  1  0
  9 10  1  0
 10 11  2  0
 10 12  2  0
 10 13  1  0
 13 14  2  0
 14 15  1  0
 15 16  2  0
 16 17  1  0
 16 18  1  0
 18 13  1  0
M  END
>  <Synonyms>  (469) 
GSI-136

>  <Research Codes>  (469) 
nan

>  <Phase>  (469) 
1

>  <Applicants>  (469) 
nan

>  <USAN Stem>  (469) 
nan

>  <USAN Year>  (469) 
nan

>  <USAN Stem Definition>  (469) 
nan

>  <USAN Stem Substem>  (469) 
nan

>  <First Approval>  (469) 
nan

>  <ATC Codes>  (469) 
nan

>  <Level 4 ATC Codes>  (469) 
nan

>  <Level 3 ATC Codes>  (469) 
nan

>  <Level 2 ATC Codes>  (469) 
nan

>  <Level 1 ATC Codes>  (469) 
nan

>  <Indication Class>  (469) 
nan

>  <Patent>  (469) 
nan

>  <Drug Type>  (469) 
1:Synthetic Small Molecule

>  <Passes Rule of Five>  (469) 
True

>  <First In Class>  (469) 
False

>  <Chirality>  (469) 
Single Stereoisomer

>  <Prodrug>  (469) 
False

>  <Oral>  (469) 
False

>  <Parenteral>  (469) 
False

>  <Topical>  (469) 
False

>  <Black Box>  (469) 
False

>  <Availability Type>  (469) 
Unknown

>  <Withdrawn Year>  (469) 
nan

>  <Withdrawn Reason>  (469) 
nan

>  <Withdrawn Country>  (469) 
nan

>  <Withdrawn Class>  (469) 
nan

>  <SMILES>  (469) 
CCC(CC)[C@@H](CO)NS(=O)(=O)c1ccc(Cl)s1

>  <InChi Key>  (469) 
PYZFRRVBPNGCBX-SECBINFHSA-N

$$$$
CHEMBL471036
     RDKit          2D

 18 20  0  0  0  0  0  0  0  0999 V2000
    1.5000    0.0000    0.0000 C   0  0  0  0  0  0  0  0  0  0  0  0
    0.7500   -1.2990    0.0000 C   0  0  0  0  0  0  0  0  0  0  0  0
   -0.7500   -1.2990    0.0000 C   0  0  0  0  0  0  0  0  0  0  0  0
   -1.5000    0.0000    0.0000 C   0  0  0  0  0  0  0  0  0  0  0  0
   -3.0000    0.0000    0.0000 C   0  0  0  0  0  0  0  0  0  0  0  0
   -3.7500    1.2990    0.0000 C   0  0  0  0  0  0  0  0  0  0  0  0
   -5.2500    1.2990    0.0000 C   0  0  0  0  0  0  0  0  0  0  0  0
   -6.0000    2.5981    0.0000 O   0  0  0  0  0  0  0  0  0  0  0  0
   -7.5000    2.5981    0.0000 C   0  0  0  0  0  0  0  0  0  0  0  0
   -8.2500    3.8971    0.0000 C   0  0  0  0  0  0  0  0  0  0  0  0
   -9.7500    3.8971    0.0000 C   0  0  0  0  0  0  0  0  0  0  0  0
  -10.5000    2.5981    0.0000 N   0  0  0  0  0  0  0  0  0  0  0  0
   -9.7500    1.2990    0.0000 C   0  0  0  0  0  0  0  0  0  0  0  0
   -8.2500    1.2990    0.0000 C   0  0  0  0  0  0  0  0  0  0  0  0
   -3.0000    2.5981    0.0000 C   0  0  0  0  0  0  0  0  0  0  0  0
   -1.5000    2.5981    0.0000 C   0  0  0  0  0  0  0  0  0  0  0  0
   -0.7500    1.2990    0.0000 C   0  0  0  0  0  0  0  0  0  0  0  0
    0.7500    1.2990    0.0000 C   0  0  0  0  0  0  0  0  0  0  0  0
  1  2  2  0
  2  3  1  0
  3  4  2  0
  4  5  1  0
  5  6  2  0
  6  7  1  0
  7  8  1  0
  8  9  1  0
  9 10  1  0
 10 11  1  0
 11 12  1  0
 12 13  1  0
 13 14  1  0
  6 15  1  0
 15 16  2  0
 16 17  1  0
 17 18  2  0
 18  1  1  0
 17  4  1  0
 14  9  1  0
M  END
>  <Synonyms>  (470) 
LITOXETINE

>  <Research Codes>  (470) 
nan

>  <Phase>  (470) 
1

>  <Applicants>  (470) 
nan

>  <USAN Stem>  (470) 
'-oxetine'

>  <USAN Year>  (470) 
nan

>  <USAN Stem Definition>  (470) 
antidepressants (fluoxetine type)

>  <USAN Stem Substem>  (470) 
'-oxetine(-oxetine)'

>  <First Approval>  (470) 
nan

>  <ATC Codes>  (470) 
nan

>  <Level 4 ATC Codes>  (470) 
nan

>  <Level 3 ATC Codes>  (470) 
nan

>  <Level 2 ATC Codes>  (470) 
nan

>  <Level 1 ATC Codes>  (470) 
nan

>  <Indication Class>  (470) 
nan

>  <Patent>  (470) 
nan

>  <Drug Type>  (470) 
1:Synthetic Small Molecule

>  <Passes Rule of Five>  (470) 
True

>  <First In Class>  (470) 
False

>  <Chirality>  (470) 
Achiral Molecule

>  <Prodrug>  (470) 
False

>  <Oral>  (470) 
False

>  <Parenteral>  (470) 
False

>  <Topical>  (470) 
False

>  <Black Box>  (470) 
False

>  <Availability Type>  (470) 
Unknown

>  <Withdrawn Year>  (470) 
nan

>  <Withdrawn Reason>  (470) 
nan

>  <Withdrawn Country>  (470) 
nan

>  <Withdrawn Class>  (470) 
nan

>  <SMILES>  (470) 
c1ccc2cc(COC3CCNCC3)ccc2c1

>  <InChi Key>  (470) 
MJJDYOLPMGIWND-UHFFFAOYSA-N

$$$$
CHEMBL718
     RDKit          2D

 15 15  0  0  0  0  0  0  0  0999 V2000
    4.5000   -2.5981    0.0000 C   0  0  0  0  0  0  0  0  0  0  0  0
    3.7500   -1.2990    0.0000 C   0  0  0  0  0  0  0  0  0  0  0  0
    2.4510   -2.0490    0.0000 N   0  0  0  0  0  0  0  0  0  0  0  0
    3.0000    0.0000    0.0000 C   0  0  0  0  0  0  0  0  0  0  0  0
    1.5000    0.0000    0.0000 C   0  0  0  0  0  0  0  0  0  0  0  0
    0.7500   -1.2990    0.0000 C   0  0  0  0  0  0  0  0  0  0  0  0
   -0.7500   -1.2990    0.0000 C   0  0  0  0  0  0  0  0  0  0  0  0
   -1.5000    0.0000    0.0000 C   0  0  0  0  0  0  0  0  0  0  0  0
   -3.0000    0.0000    0.0000 O   0  0  0  0  0  0  0  0  0  0  0  0
   -0.7500    1.2990    0.0000 C   0  0  0  0  0  0  0  0  0  0  0  0
   -1.5000    2.5981    0.0000 O   0  0  0  0  0  0  0  0  0  0  0  0
    0.7500    1.2990    0.0000 C   0  0  0  0  0  0  0  0  0  0  0  0
    5.0490   -0.5490    0.0000 C   0  0  0  0  0  0  0  0  0  0  0  0
    6.3481   -1.2990    0.0000 O   0  0  0  0  0  0  0  0  0  0  0  0
    5.0490    0.9510    0.0000 O   0  0  0  0  0  0  0  0  0  0  0  0
  1  2  1  0
  2  3  1  0
  2  4  1  0
  4  5  1  0
  5  6  2  0
  6  7  1  0
  7  8  2  0
  8  9  1  0
  8 10  1  0
 10 11  1  0
 10 12  2  0
  2 13  1  0
 13 14  2  0
 13 15  1  0
 12  5  1  0
M  END
>  <Synonyms>  (471) 
2-Amino-3-(3,4-Dihydroxy-Phenyl)-2- Methyl-Propionic Acid(Catechol Metabolite)|METHYLDOPA (RACEMIC)|METHYLDOPA DL-FORM|Methyldopa (Racemic)

>  <Research Codes>  (471) 
nan

>  <Phase>  (471) 
1

>  <Applicants>  (471) 
nan

>  <USAN Stem>  (471) 
'-dopa'

>  <USAN Year>  (471) 
nan

>  <USAN Stem Definition>  (471) 
dopamine receptor agonists

>  <USAN Stem Substem>  (471) 
'-dopa(-dopa)'

>  <First Approval>  (471) 
nan

>  <ATC Codes>  (471) 
C02AB02

>  <Level 4 ATC Codes>  (471) 
C02AB - Methyldopa

>  <Level 3 ATC Codes>  (471) 
C02A - ANTIADRENERGIC AGENTS, CENTRALLY ACTING

>  <Level 2 ATC Codes>  (471) 
C02 - ANTIHYPERTENSIVES

>  <Level 1 ATC Codes>  (471) 
C - CARDIOVASCULAR SYSTEM

>  <Indication Class>  (471) 
nan

>  <Patent>  (471) 
nan

>  <Drug Type>  (471) 
1:Synthetic Small Molecule

>  <Passes Rule of Five>  (471) 
True

>  <First In Class>  (471) 
False

>  <Chirality>  (471) 
Racemic Mixture

>  <Prodrug>  (471) 
False

>  <Oral>  (471) 
False

>  <Parenteral>  (471) 
False

>  <Topical>  (471) 
False

>  <Black Box>  (471) 
False

>  <Availability Type>  (471) 
Unknown

>  <Withdrawn Year>  (471) 
nan

>  <Withdrawn Reason>  (471) 
nan

>  <Withdrawn Country>  (471) 
nan

>  <Withdrawn Class>  (471) 
nan

>  <SMILES>  (471) 
CC(N)(Cc1ccc(O)c(O)c1)C(=O)O

>  <InChi Key>  (471) 
CJCSPKMFHVPWAR-UHFFFAOYSA-N

$$$$
CHEMBL168640
     RDKit          2D

 44 46  0  0  0  0  0  0  0  0999 V2000
    6.7500  -11.6913    0.0000 C   0  0  0  0  0  0  0  0  0  0  0  0
    6.0000  -12.9904    0.0000 O   0  0  0  0  0  0  0  0  0  0  0  0
    4.5000  -12.9904    0.0000 C   0  0  0  0  0  0  0  0  0  0  0  0
    3.7500  -11.6913    0.0000 O   0  0  0  0  0  0  0  0  0  0  0  0
    3.7500  -14.2894    0.0000 N   0  0  0  0  0  0  0  0  0  0  0  0
    2.2500  -14.2894    0.0000 C   0  0  0  0  0  0  0  0  0  0  0  0
    1.5000  -12.9904    0.0000 C   0  0  0  0  0  0  0  0  0  0  0  0
   -0.0000  -12.9904    0.0000 O   0  0  0  0  0  0  0  0  0  0  0  0
    2.2500  -11.6913    0.0000 N   0  0  0  0  0  0  0  0  0  0  0  0
    1.5000  -10.3923    0.0000 C   0  0  0  0  0  0  0  0  0  0  0  0
    2.2500   -9.0933    0.0000 C   0  0  0  0  0  0  0  0  0  0  0  0
    1.5000   -7.7942    0.0000 C   0  0  0  0  0  0  0  0  0  0  0  0
    2.2500   -6.4952    0.0000 C   0  0  0  0  0  0  0  0  0  0  0  0
    1.5000   -5.1962    0.0000 C   0  0  0  0  0  0  0  0  0  0  0  0
   -0.0000   -5.1962    0.0000 C   0  0  0  0  0  0  0  0  0  0  0  0
   -0.7500   -6.4952    0.0000 O   0  0  0  0  0  0  0  0  0  0  0  0
    2.2500   -3.8971    0.0000 N   0  0  0  0  0  0  0  0  0  0  0  0
    3.7500   -3.8971    0.0000 C   0  0  0  0  0  0  0  0  0  0  0  0
    4.5000   -5.1962    0.0000 C   0  0  0  0  0  0  0  0  0  0  0  0
    6.0000   -5.1962    0.0000 C   0  0  0  0  0  0  0  0  0  0  0  0
    3.7500   -6.4952    0.0000 C   0  0  0  0  0  0  0  0  0  0  0  0
    1.5000   -2.5981    0.0000 S   0  0  0  0  0  0  0  0  0  0  0  0
    0.2010   -3.3481    0.0000 O   0  0  0  0  0  0  0  0  0  0  0  0
    2.7990   -1.8481    0.0000 O   0  0  0  0  0  0  0  0  0  0  0  0
    0.7500   -1.2990    0.0000 C   0  0  0  0  0  0  0  0  0  0  0  0
    1.5000    0.0000    0.0000 C   0  0  0  0  0  0  0  0  0  0  0  0
    0.7500    1.2990    0.0000 C   0  0  0  0  0  0  0  0  0  0  0  0
   -0.7500    1.2990    0.0000 C   0  0  0  0  0  0  0  0  0  0  0  0
   -1.5000    2.5981    0.0000 N   0  0  0  0  0  0  0  0  0  0  0  0
   -1.5000    0.0000    0.0000 C   0  0  0  0  0  0  0  0  0  0  0  0
   -0.7500   -1.2990    0.0000 C   0  0  0  0  0  0  0  0  0  0  0  0
    1.5000  -15.5885    0.0000 C   0  0  0  0  0  0  0  0  0  0  0  0
    0.0000  -15.5885    0.0000 C   0  0  0  0  0  0  0  0  0  0  0  0
   -0.7500  -16.8875    0.0000 C   0  0  0  0  0  0  0  0  0  0  0  0
   -2.2500  -16.8875    0.0000 C   0  0  0  0  0  0  0  0  0  0  0  0
   -3.0000  -15.5885    0.0000 C   0  0  0  0  0  0  0  0  0  0  0  0
   -2.2500  -14.2894    0.0000 C   0  0  0  0  0  0  0  0  0  0  0  0
   -0.7500  -14.2894    0.0000 C   0  0  0  0  0  0  0  0  0  0  0  0
    2.2500  -16.8875    0.0000 C   0  0  0  0  0  0  0  0  0  0  0  0
    3.7500  -16.8875    0.0000 C   0  0  0  0  0  0  0  0  0  0  0  0
    4.5000  -18.1865    0.0000 C   0  0  0  0  0  0  0  0  0  0  0  0
    3.7500  -19.4856    0.0000 C   0  0  0  0  0  0  0  0  0  0  0  0
    2.2500  -19.4856    0.0000 C   0  0  0  0  0  0  0  0  0  0  0  0
    1.5000  -18.1865    0.0000 C   0  0  0  0  0  0  0  0  0  0  0  0
  1  2  1  0
  2  3  1  0
  3  4  2  0
  3  5  1  0
  5  6  1  0
  6  7  1  0
  7  8  2  0
  7  9  1  0
  9 10  1  0
 10 11  1  0
 11 12  1  0
 12 13  1  0
 14 13  1  1
 14 15  1  0
 15 16  1  0
 14 17  1  0
 17 18  1  0
 18 19  1  0
 19 20  1  0
 19 21  1  0
 17 22  1  0
 22 23  2  0
 22 24  2  0
 22 25  1  0
 25 26  2  0
 26 27  1  0
 27 28  2  0
 28 29  1  0
 28 30  1  0
 30 31  2  0
  6 32  1  0
 32 33  1  0
 33 34  2  0
 34 35  1  0
 35 36  2  0
 36 37  1  0
 37 38  2  0
 32 39  1  0
 39 40  2  0
 40 41  1  0
 41 42  2  0
 42 43  1  0
 43 44  2  0
 31 25  1  0
 38 33  1  0
 44 39  1  0
M  END
>  <Synonyms>  (472) 
MK-8122|MX-100|PL 100 (PHARMACEUTICAL)|PL-100|PPL 100|PPL-100|TMB-607

>  <Research Codes>  (472) 
MK-8122|MX-100|PL 100 (PHARMACEUTICAL)|PL-100|PPL 100|TMB-607

>  <Phase>  (472) 
1

>  <Applicants>  (472) 
nan

>  <USAN Stem>  (472) 
nan

>  <USAN Year>  (472) 
nan

>  <USAN Stem Definition>  (472) 
nan

>  <USAN Stem Substem>  (472) 
nan

>  <First Approval>  (472) 
nan

>  <ATC Codes>  (472) 
nan

>  <Level 4 ATC Codes>  (472) 
nan

>  <Level 3 ATC Codes>  (472) 
nan

>  <Level 2 ATC Codes>  (472) 
nan

>  <Level 1 ATC Codes>  (472) 
nan

>  <Indication Class>  (472) 
nan

>  <Patent>  (472) 
nan

>  <Drug Type>  (472) 
1:Synthetic Small Molecule

>  <Passes Rule of Five>  (472) 
False

>  <First In Class>  (472) 
False

>  <Chirality>  (472) 
Single Stereoisomer

>  <Prodrug>  (472) 
False

>  <Oral>  (472) 
False

>  <Parenteral>  (472) 
False

>  <Topical>  (472) 
False

>  <Black Box>  (472) 
False

>  <Availability Type>  (472) 
Unknown

>  <Withdrawn Year>  (472) 
nan

>  <Withdrawn Reason>  (472) 
nan

>  <Withdrawn Country>  (472) 
nan

>  <Withdrawn Class>  (472) 
nan

>  <SMILES>  (472) 
COC(=O)N[C@H](C(=O)NCCCC[C@@H](CO)N(CC(C)C)S(=O)(=O)c1ccc(N)cc1)C(c1ccccc1)c1ccccc1

>  <InChi Key>  (472) 
QAHLFXYLXBBCPS-NPHAVVRNSA-N

$$$$
CHEMBL2178575
     RDKit          2D

 33 36  0  0  0  0  0  0  0  0999 V2000
    3.7500   -1.2990    0.0000 C   0  0  0  0  0  0  0  0  0  0  0  0
    3.0000    0.0000    0.0000 O   0  0  0  0  0  0  0  0  0  0  0  0
    1.5000    0.0000    0.0000 C   0  0  0  0  0  0  0  0  0  0  0  0
    0.7500   -1.2990    0.0000 C   0  0  0  0  0  0  0  0  0  0  0  0
   -0.7500   -1.2990    0.0000 C   0  0  0  0  0  0  0  0  0  0  0  0
   -1.5000    0.0000    0.0000 C   0  0  0  0  0  0  0  0  0  0  0  0
   -0.7500    1.2990    0.0000 C   0  0  0  0  0  0  0  0  0  0  0  0
    0.7500    1.2990    0.0000 C   0  0  0  0  0  0  0  0  0  0  0  0
    1.2135    2.7256    0.0000 C   0  0  0  0  0  0  0  0  0  0  0  0
    2.6401    3.1891    0.0000 N   0  0  0  0  0  0  0  0  0  0  0  0
    2.9520    4.6564    0.0000 S   0  0  0  0  0  0  0  0  0  0  0  0
    1.4848    4.9682    0.0000 O   0  0  0  0  0  0  0  0  0  0  0  0
    4.4192    4.3445    0.0000 O   0  0  0  0  0  0  0  0  0  0  0  0
    3.2638    6.1236    0.0000 C   0  0  0  0  0  0  0  0  0  0  0  0
    2.2601    7.2383    0.0000 C   0  0  0  0  0  0  0  0  0  0  0  0
    3.0101    8.5373    0.0000 C   0  0  0  0  0  0  0  0  0  0  0  0
    4.4774    8.2255    0.0000 C   0  0  0  0  0  0  0  0  0  0  0  0
    5.5921    9.2292    0.0000 Cl  0  0  0  0  0  0  0  0  0  0  0  0
    4.6342    6.7337    0.0000 S   0  0  0  0  0  0  0  0  0  0  0  0
    0.0000    3.6073    0.0000 N   0  0  0  0  0  0  0  0  0  0  0  0
   -1.2135    2.7256    0.0000 N   0  0  0  0  0  0  0  0  0  0  0  0
   -2.6401    3.1891    0.0000 C   0  0  0  0  0  0  0  0  0  0  0  0
   -2.9520    4.6564    0.0000 C   0  0  0  0  0  0  0  0  0  0  0  0
   -1.8373    5.6601    0.0000 C   0  0  0  0  0  0  0  0  0  0  0  0
   -2.1491    7.1273    0.0000 C   0  0  0  0  0  0  0  0  0  0  0  0
   -3.5757    7.5908    0.0000 C   0  0  0  0  0  0  0  0  0  0  0  0
   -4.6904    6.5871    0.0000 C   0  0  0  0  0  0  0  0  0  0  0  0
   -6.1170    7.0506    0.0000 N   0  0  0  0  0  0  0  0  0  0  0  0
   -6.4289    8.5179    0.0000 C   0  0  0  0  0  0  0  0  0  0  0  0
   -5.3142    9.5216    0.0000 O   0  0  0  0  0  0  0  0  0  0  0  0
   -7.8555    8.9814    0.0000 C   0  0  0  0  0  0  0  0  0  0  0  0
   -8.1673   10.4486    0.0000 O   0  0  0  0  0  0  0  0  0  0  0  0
   -4.3786    5.1199    0.0000 C   0  0  0  0  0  0  0  0  0  0  0  0
  1  2  1  0
  2  3  1  0
  3  4  2  0
  4  5  1  0
  5  6  2  0
  6  7  1  0
  7  8  2  0
  8  9  1  0
  9 10  2  3
 10 11  1  0
 11 12  2  0
 11 13  2  0
 11 14  1  0
 14 15  2  0
 15 16  1  0
 16 17  2  0
 17 18  1  0
 17 19  1  0
  9 20  1  0
 20 21  1  0
 21 22  1  0
 22 23  1  0
 23 24  2  0
 24 25  1  0
 25 26  2  0
 26 27  1  0
 27 28  1  0
 28 29  1  0
 29 30  2  0
 29 31  1  0
 31 32  1  0
 27 33  2  0
  8  3  1  0
 19 14  1  0
 33 23  1  0
 21  7  1  0
M  END
>  <Synonyms>  (473) 
GSK 2239633A|GSK-2239633

>  <Research Codes>  (473) 
GSK 2239633A|GSK2239633

>  <Phase>  (473) 
1

>  <Applicants>  (473) 
nan

>  <USAN Stem>  (473) 
nan

>  <USAN Year>  (473) 
nan

>  <USAN Stem Definition>  (473) 
nan

>  <USAN Stem Substem>  (473) 
nan

>  <First Approval>  (473) 
nan

>  <ATC Codes>  (473) 
nan

>  <Level 4 ATC Codes>  (473) 
nan

>  <Level 3 ATC Codes>  (473) 
nan

>  <Level 2 ATC Codes>  (473) 
nan

>  <Level 1 ATC Codes>  (473) 
nan

>  <Indication Class>  (473) 
nan

>  <Patent>  (473) 
nan

>  <Drug Type>  (473) 
1:Synthetic Small Molecule

>  <Passes Rule of Five>  (473) 
False

>  <First In Class>  (473) 
False

>  <Chirality>  (473) 
Achiral Molecule

>  <Prodrug>  (473) 
False

>  <Oral>  (473) 
False

>  <Parenteral>  (473) 
False

>  <Topical>  (473) 
False

>  <Black Box>  (473) 
False

>  <Availability Type>  (473) 
Unknown

>  <Withdrawn Year>  (473) 
nan

>  <Withdrawn Reason>  (473) 
nan

>  <Withdrawn Country>  (473) 
nan

>  <Withdrawn Class>  (473) 
nan

>  <SMILES>  (473) 
COc1cccc2c1c(NS(=O)(=O)c1ccc(Cl)s1)nn2Cc1cccc(NC(=O)CO)c1

>  <InChi Key>  (473) 
JVBQEIRQUCWMTR-UHFFFAOYSA-N

$$$$
CHEMBL219046
     RDKit          2D

 26 29  0  0  0  0  0  0  0  0999 V2000
   -1.5000   -7.7942    0.0000 O   0  0  0  0  0  0  0  0  0  0  0  0
   -0.7500   -6.4952    0.0000 C   0  0  0  0  0  0  0  0  0  0  0  0
    0.7500   -6.4952    0.0000 O   0  0  0  0  0  0  0  0  0  0  0  0
   -1.5000   -5.1962    0.0000 C   0  0  0  0  0  0  0  0  0  0  0  0
   -3.0000   -5.1962    0.0000 C   0  0  0  0  0  0  0  0  0  0  0  0
   -3.7500   -6.4952    0.0000 O   0  0  0  0  0  0  0  0  0  0  0  0
   -3.7500   -3.8971    0.0000 C   0  0  0  0  0  0  0  0  0  0  0  0
   -5.2500   -3.8971    0.0000 C   0  0  0  0  0  0  0  0  0  0  0  0
   -6.0000   -2.5981    0.0000 C   0  0  0  0  0  0  0  0  0  0  0  0
   -5.2500   -1.2990    0.0000 C   0  0  0  0  0  0  0  0  0  0  0  0
   -6.0000    0.0000    0.0000 C   0  0  0  0  0  0  0  0  0  0  0  0
   -7.5000    0.0000    0.0000 C   0  0  0  0  0  0  0  0  0  0  0  0
   -8.2500    1.2990    0.0000 Cl  0  0  0  0  0  0  0  0  0  0  0  0
   -8.2500   -1.2990    0.0000 C   0  0  0  0  0  0  0  0  0  0  0  0
   -7.5000   -2.5981    0.0000 C   0  0  0  0  0  0  0  0  0  0  0  0
   -3.0000   -2.5981    0.0000 N   0  0  0  0  0  0  0  0  0  0  0  0
   -1.5000   -2.5981    0.0000 C   0  0  0  0  0  0  0  0  0  0  0  0
   -0.7500   -1.2990    0.0000 C   0  0  0  0  0  0  0  0  0  0  0  0
    0.7500   -1.2990    0.0000 C   0  0  0  0  0  0  0  0  0  0  0  0
    1.5000   -2.5981    0.0000 C   0  0  0  0  0  0  0  0  0  0  0  0
    0.7500   -3.8971    0.0000 C   0  0  0  0  0  0  0  0  0  0  0  0
   -0.7500   -3.8971    0.0000 C   0  0  0  0  0  0  0  0  0  0  0  0
    1.5000    0.0000    0.0000 C   0  0  0  0  0  0  0  0  0  0  0  0
    0.7500    1.2990    0.0000 C   0  0  0  0  0  0  0  0  0  0  0  0
   -0.7500    1.2990    0.0000 C   0  0  0  0  0  0  0  0  0  0  0  0
   -1.5000    0.0000    0.0000 C   0  0  0  0  0  0  0  0  0  0  0  0
  1  2  2  0
  2  3  1  0
  2  4  1  0
  4  5  2  0
  5  6  1  0
  5  7  1  0
  7  8  1  0
  8  9  1  0
  9 10  2  0
 10 11  1  0
 11 12  2  0
 12 13  1  0
 12 14  1  0
 14 15  2  0
  7 16  2  0
 16 17  1  0
 17 18  2  0
 18 19  1  0
 19 20  2  0
 20 21  1  0
 21 22  2  0
 19 23  1  0
 23 24  1  0
 24 25  1  0
 25 26  1  0
 22  4  1  0
 15  9  1  0
 22 17  1  0
 26 18  1  0
M  END
>  <Synonyms>  (474) 
PSI-697

>  <Research Codes>  (474) 
nan

>  <Phase>  (474) 
1

>  <Applicants>  (474) 
nan

>  <USAN Stem>  (474) 
nan

>  <USAN Year>  (474) 
nan

>  <USAN Stem Definition>  (474) 
nan

>  <USAN Stem Substem>  (474) 
nan

>  <First Approval>  (474) 
nan

>  <ATC Codes>  (474) 
nan

>  <Level 4 ATC Codes>  (474) 
nan

>  <Level 3 ATC Codes>  (474) 
nan

>  <Level 2 ATC Codes>  (474) 
nan

>  <Level 1 ATC Codes>  (474) 
nan

>  <Indication Class>  (474) 
nan

>  <Patent>  (474) 
nan

>  <Drug Type>  (474) 
1:Synthetic Small Molecule

>  <Passes Rule of Five>  (474) 
True

>  <First In Class>  (474) 
False

>  <Chirality>  (474) 
Achiral Molecule

>  <Prodrug>  (474) 
False

>  <Oral>  (474) 
False

>  <Parenteral>  (474) 
False

>  <Topical>  (474) 
False

>  <Black Box>  (474) 
False

>  <Availability Type>  (474) 
Unknown

>  <Withdrawn Year>  (474) 
nan

>  <Withdrawn Reason>  (474) 
nan

>  <Withdrawn Country>  (474) 
nan

>  <Withdrawn Class>  (474) 
nan

>  <SMILES>  (474) 
O=C(O)c1c(O)c(Cc2ccc(Cl)cc2)nc2c3c(ccc12)CCCC3

>  <InChi Key>  (474) 
DIEPFYNZGUUVHD-UHFFFAOYSA-N

$$$$
CHEMBL1096237
     RDKit          2D

 63 69  0  0  0  0  0  0  0  0999 V2000
    5.1962   -1.0607    0.0000 C   0  0  0  0  0  0  0  0  0  0  0  0
    3.8971   -1.8107    0.0000 O   0  0  0  0  0  0  0  0  0  0  0  0
    2.5981   -1.0607    0.0000 C   0  0  0  0  0  0  0  0  0  0  0  0
    2.5981    0.4393    0.0000 O   0  0  0  0  0  0  0  0  0  0  0  0
    1.2990   -1.8107    0.0000 O   0  0  0  0  0  0  0  0  0  0  0  0
   -0.0000   -1.0607    0.0000 C   0  0  0  0  0  0  0  0  0  0  0  0
    1.0607    0.0000    0.0000 C   0  0  0  0  0  0  0  0  0  0  0  0
    0.0000    1.0607    0.0000 O   0  0  0  0  0  0  0  0  0  0  0  0
   -1.0607    0.0000    0.0000 C   0  0  0  0  0  0  0  0  0  0  0  0
   -2.5095   -0.3882    0.0000 C   0  0  0  0  0  0  0  0  0  0  0  0
   -2.8978   -1.8371    0.0000 C   0  0  0  0  0  0  0  0  0  0  0  0
   -4.3467   -2.2253    0.0000 O   0  0  0  0  0  0  0  0  0  0  0  0
   -1.8371   -2.8978    0.0000 C   0  0  0  0  0  0  0  0  0  0  0  0
   -3.3243   -3.0936    0.0000 C   0  0  0  0  0  0  0  0  0  0  0  0
   -2.5871   -4.1968    0.0000 C   0  0  0  0  0  0  0  0  0  0  0  0
   -4.0743   -4.0010    0.0000 O   0  0  0  0  0  0  0  0  0  0  0  0
   -2.1989   -5.6457    0.0000 C   0  0  0  0  0  0  0  0  0  0  0  0
   -3.3889   -6.5588    0.0000 O   0  0  0  0  0  0  0  0  0  0  0  0
   -4.7747   -5.9848    0.0000 C   0  0  0  0  0  0  0  0  0  0  0  0
   -5.9648   -6.8980    0.0000 C   0  0  0  0  0  0  0  0  0  0  0  0
   -4.9705   -4.4977    0.0000 O   0  0  0  0  0  0  0  0  0  0  0  0
   -0.8999   -6.3957    0.0000 C   0  0  0  0  0  0  0  0  0  0  0  0
    0.1510   -7.4801    0.0000 C   0  0  0  0  0  0  0  0  0  0  0  0
   -0.4230   -8.8659    0.0000 C   0  0  0  0  0  0  0  0  0  0  0  0
    1.6382   -7.2843    0.0000 C   0  0  0  0  0  0  0  0  0  0  0  0
    2.5513   -8.4743    0.0000 O   0  0  0  0  0  0  0  0  0  0  0  0
    4.0385   -8.2785    0.0000 C   0  0  0  0  0  0  0  0  0  0  0  0
    4.6125   -6.8927    0.0000 O   0  0  0  0  0  0  0  0  0  0  0  0
    4.9516   -9.4686    0.0000 C   0  0  0  0  0  0  0  0  0  0  0  0
    4.3776  -10.8544    0.0000 O   0  0  0  0  0  0  0  0  0  0  0  0
    6.4388   -9.2728    0.0000 C   0  0  0  0  0  0  0  0  0  0  0  0
    7.0128   -7.8869    0.0000 N   0  0  0  0  0  0  0  0  0  0  0  0
    8.5000   -7.6912    0.0000 C   0  0  0  0  0  0  0  0  0  0  0  0
    9.4131   -8.8812    0.0000 O   0  0  0  0  0  0  0  0  0  0  0  0
    9.0740   -6.3053    0.0000 C   0  0  0  0  0  0  0  0  0  0  0  0
   10.5612   -6.1096    0.0000 C   0  0  0  0  0  0  0  0  0  0  0  0
   11.1352   -4.7237    0.0000 C   0  0  0  0  0  0  0  0  0  0  0  0
   10.2220   -3.5337    0.0000 C   0  0  0  0  0  0  0  0  0  0  0  0
    8.7349   -3.7295    0.0000 C   0  0  0  0  0  0  0  0  0  0  0  0
    8.1608   -5.1153    0.0000 C   0  0  0  0  0  0  0  0  0  0  0  0
    7.3519  -10.4628    0.0000 C   0  0  0  0  0  0  0  0  0  0  0  0
    6.7779  -11.8486    0.0000 C   0  0  0  0  0  0  0  0  0  0  0  0
    7.6910  -13.0386    0.0000 C   0  0  0  0  0  0  0  0  0  0  0  0
    9.1782  -12.8429    0.0000 C   0  0  0  0  0  0  0  0  0  0  0  0
    9.7522  -11.4570    0.0000 C   0  0  0  0  0  0  0  0  0  0  0  0
    8.8391  -10.2670    0.0000 C   0  0  0  0  0  0  0  0  0  0  0  0
    2.2122   -5.8985    0.0000 C   0  0  0  0  0  0  0  0  0  0  0  0
    1.2990   -4.7084    0.0000 C   0  0  0  0  0  0  0  0  0  0  0  0
    2.7862   -4.9042    0.0000 O   0  0  0  0  0  0  0  0  0  0  0  0
    0.9108   -3.2595    0.0000 C   0  0  0  0  0  0  0  0  0  0  0  0
    2.1008   -2.3464    0.0000 O   0  0  0  0  0  0  0  0  0  0  0  0
    3.4867   -2.9204    0.0000 C   0  0  0  0  0  0  0  0  0  0  0  0
    3.6824   -4.4076    0.0000 O   0  0  0  0  0  0  0  0  0  0  0  0
    4.6767   -2.0073    0.0000 C   0  0  0  0  0  0  0  0  0  0  0  0
    6.0625   -2.5813    0.0000 C   0  0  0  0  0  0  0  0  0  0  0  0
    7.2525   -1.6682    0.0000 C   0  0  0  0  0  0  0  0  0  0  0  0
    7.0567   -0.1810    0.0000 C   0  0  0  0  0  0  0  0  0  0  0  0
    5.6709    0.3930    0.0000 C   0  0  0  0  0  0  0  0  0  0  0  0
    4.4809   -0.5201    0.0000 C   0  0  0  0  0  0  0  0  0  0  0  0
   -0.3882   -2.5095    0.0000 C   0  0  0  0  0  0  0  0  0  0  0  0
    0.5490   -6.0075    0.0000 C   0  0  0  0  0  0  0  0  0  0  0  0
    1.5054   -6.5377    0.0000 C   0  0  0  0  0  0  0  0  0  0  0  0
    0.9120   -7.4629    0.0000 C   0  0  0  0  0  0  0  0  0  0  0  0
  1  2  1  0
  2  3  1  0
  3  4  2  0
  3  5  1  0
  6  5  1  6
  6  7  1  0
  7  8  1  0
  8  9  1  0
  9 10  1  1
 10 11  1  0
 11 12  1  1
 11 13  1  0
 13 14  1  1
 13 15  1  0
 15 16  2  0
 15 17  1  0
 17 18  1  0
 18 19  1  0
 19 20  1  0
 19 21  2  0
 17 22  2  0
 22 23  1  0
 23 24  1  0
 23 25  1  0
 25 26  1  6
 26 27  1  0
 27 28  2  0
 27 29  1  0
 29 30  1  0
 29 31  1  0
 31 32  1  0
 32 33  1  0
 33 34  2  0
 33 35  1  0
 35 36  2  0
 36 37  1  0
 37 38  2  0
 38 39  1  0
 39 40  2  0
 31 41  1  0
 41 42  2  0
 42 43  1  0
 43 44  2  0
 44 45  1  0
 45 46  2  0
 25 47  1  0
 47 48  1  0
 48 49  1  1
 48 50  1  0
 50 51  1  6
 51 52  1  0
 52 53  2  0
 52 54  1  0
 54 55  2  0
 55 56  1  0
 56 57  2  0
 57 58  1  0
 58 59  2  0
 60 50  1  1
 48 61  1  0
 61 62  1  0
 61 63  1  0
  9  6  1  0
 60 13  1  0
 60  6  1  0
 61 22  1  0
 40 35  1  0
 46 41  1  0
 59 54  1  0
M  END
>  <Synonyms>  (475) 
4-DESACETYLPACLITAXEL 4-METHYL CARBONATE|4-Desacetylpaclitaxel|BMS-188797

>  <Research Codes>  (475) 
nan

>  <Phase>  (475) 
1

>  <Applicants>  (475) 
nan

>  <USAN Stem>  (475) 
nan

>  <USAN Year>  (475) 
nan

>  <USAN Stem Definition>  (475) 
nan

>  <USAN Stem Substem>  (475) 
nan

>  <First Approval>  (475) 
nan

>  <ATC Codes>  (475) 
nan

>  <Level 4 ATC Codes>  (475) 
nan

>  <Level 3 ATC Codes>  (475) 
nan

>  <Level 2 ATC Codes>  (475) 
nan

>  <Level 1 ATC Codes>  (475) 
nan

>  <Indication Class>  (475) 
nan

>  <Patent>  (475) 
nan

>  <Drug Type>  (475) 
7:Natural Product-derived

>  <Passes Rule of Five>  (475) 
False

>  <First In Class>  (475) 
False

>  <Chirality>  (475) 
Single Stereoisomer

>  <Prodrug>  (475) 
False

>  <Oral>  (475) 
False

>  <Parenteral>  (475) 
False

>  <Topical>  (475) 
False

>  <Black Box>  (475) 
False

>  <Availability Type>  (475) 
Unknown

>  <Withdrawn Year>  (475) 
nan

>  <Withdrawn Reason>  (475) 
nan

>  <Withdrawn Country>  (475) 
nan

>  <Withdrawn Class>  (475) 
nan

>  <SMILES>  (475) 
COC(=O)O[C@@]12CO[C@@H]1C[C@H](O)[C@@]1(C)C(=O)[C@H](OC(C)=O)C3=C(C)[C@@H](OC(=O)[C@H](O)[C@@H](NC(=O)c4ccccc4)c4ccccc4)C[C@@](O)([C@@H](OC(=O)c4ccccc4)[C@@H]12)C3(C)C

>  <InChi Key>  (475) 
ABIZEZNSXJNXJM-FHUWPKBYSA-N

$$$$
CHEMBL3334624
     RDKit          2D

 46 51  0  0  0  0  0  0  0  0999 V2000
    0.0000  -18.0850    0.0000 C   0  0  0  0  0  0  0  0  0  0  0  0
    1.2990  -17.3350    0.0000 C   0  0  0  0  0  0  0  0  0  0  0  0
    1.2990  -15.8350    0.0000 C   0  0  0  0  0  0  0  0  0  0  0  0
    2.5981  -15.0850    0.0000 C   0  0  0  0  0  0  0  0  0  0  0  0
    2.5981  -13.5850    0.0000 C   0  0  0  0  0  0  0  0  0  0  0  0
    1.2990  -12.8350    0.0000 C   0  0  0  0  0  0  0  0  0  0  0  0
    1.2990  -11.3350    0.0000 O   0  0  0  0  0  0  0  0  0  0  0  0
    2.5981  -10.5850    0.0000 C   0  0  0  0  0  0  0  0  0  0  0  0
    3.8971  -11.3350    0.0000 O   0  0  0  0  0  0  0  0  0  0  0  0
    2.5981   -9.0850    0.0000 N   0  0  0  0  0  0  0  0  0  0  0  0
    1.2990   -8.3350    0.0000 C   0  0  0  0  0  0  0  0  0  0  0  0
    1.2990   -6.8350    0.0000 C   0  0  0  0  0  0  0  0  0  0  0  0
    2.5981   -6.0850    0.0000 C   0  0  0  0  0  0  0  0  0  0  0  0
    2.5981   -4.5850    0.0000 N   0  0  0  0  0  0  0  0  0  0  0  0
    1.2466   -3.9342    0.0000 C   0  0  0  0  0  0  0  0  0  0  0  0
    0.9128   -2.4718    0.0000 C   0  0  0  0  0  0  0  0  0  0  0  0
    1.8481   -1.2990    0.0000 C   0  0  0  0  0  0  0  0  0  0  0  0
    1.0981    0.0000    0.0000 C   0  0  0  0  0  0  0  0  0  0  0  0
    1.8481    1.2990    0.0000 C   0  0  0  0  0  0  0  0  0  0  0  0
    3.3481    1.2990    0.0000 C   0  0  0  0  0  0  0  0  0  0  0  0
    4.0981    0.0000    0.0000 C   0  0  0  0  0  0  0  0  0  0  0  0
    3.3481   -1.2990    0.0000 C   0  0  0  0  0  0  0  0  0  0  0  0
    4.2833   -2.4718    0.0000 N   0  0  0  0  0  0  0  0  0  0  0  0
    3.9495   -3.9342    0.0000 C   0  0  0  0  0  0  0  0  0  0  0  0
    5.1223   -4.8694    0.0000 O   0  0  0  0  0  0  0  0  0  0  0  0
    3.8971   -6.8350    0.0000 C   0  0  0  0  0  0  0  0  0  0  0  0
    3.8971   -8.3350    0.0000 C   0  0  0  0  0  0  0  0  0  0  0  0
    0.0000  -13.5850    0.0000 C   0  0  0  0  0  0  0  0  0  0  0  0
    0.0000  -15.0850    0.0000 O   0  0  0  0  0  0  0  0  0  0  0  0
   -1.2990  -12.8350    0.0000 N   0  0  0  0  0  0  0  0  0  0  0  0
   -2.5981  -13.5850    0.0000 C   0  0  0  0  0  0  0  0  0  0  0  0
   -3.8971  -12.8350    0.0000 C   0  0  0  0  0  0  0  0  0  0  0  0
   -3.8971  -11.3350    0.0000 C   0  0  0  0  0  0  0  0  0  0  0  0
   -5.1962  -10.5850    0.0000 N   0  0  0  0  0  0  0  0  0  0  0  0
   -6.4952  -11.3350    0.0000 C   0  0  0  0  0  0  0  0  0  0  0  0
   -7.7942  -10.5850    0.0000 C   0  0  0  0  0  0  0  0  0  0  0  0
   -7.7942   -9.0850    0.0000 O   0  0  0  0  0  0  0  0  0  0  0  0
   -6.4952   -8.3350    0.0000 C   0  0  0  0  0  0  0  0  0  0  0  0
   -5.1962   -9.0850    0.0000 C   0  0  0  0  0  0  0  0  0  0  0  0
   -2.5981  -10.5850    0.0000 C   0  0  0  0  0  0  0  0  0  0  0  0
   -1.2990  -11.3350    0.0000 C   0  0  0  0  0  0  0  0  0  0  0  0
    3.8971  -15.8350    0.0000 C   0  0  0  0  0  0  0  0  0  0  0  0
    3.8971  -17.3350    0.0000 C   0  0  0  0  0  0  0  0  0  0  0  0
    5.1962  -18.0850    0.0000 C   0  0  0  0  0  0  0  0  0  0  0  0
    2.5981  -18.0850    0.0000 C   0  0  0  0  0  0  0  0  0  0  0  0
    2.5981  -19.5850    0.0000 O   0  0  0  0  0  0  0  0  0  0  0  0
  1  2  1  0
  2  3  2  0
  3  4  1  0
  4  5  1  0
  5  6  1  0
  6  7  1  0
  7  8  1  0
  8  9  2  0
  8 10  1  0
 10 11  1  0
 11 12  1  0
 12 13  1  0
 13 14  1  0
 14 15  1  0
 15 16  1  0
 16 17  1  0
 17 18  2  0
 18 19  1  0
 19 20  2  0
 20 21  1  0
 21 22  2  0
 22 23  1  0
 23 24  1  0
 24 25  2  0
 13 26  1  0
 26 27  1  0
  6 28  1  0
 28 29  2  0
 28 30  1  0
 30 31  1  0
 31 32  1  0
 32 33  1  0
 33 34  1  0
 34 35  1  0
 35 36  1  0
 36 37  1  0
 37 38  1  0
 38 39  1  0
 33 40  1  0
 40 41  1  0
  4 42  2  0
 42 43  1  0
 43 44  1  0
 43 45  2  0
 45 46  1  0
 45  2  1  0
 27 10  1  0
 41 30  1  0
 24 14  1  0
 39 34  1  0
 22 17  1  0
M  END
>  <Synonyms>  (476) 
BI 44370 TA|BI-44370|BI-44370-BS|J3.353.239C

>  <Research Codes>  (476) 
BI 44370 TA|BI-44370-BS|J3.353.239C

>  <Phase>  (476) 
1

>  <Applicants>  (476) 
nan

>  <USAN Stem>  (476) 
nan

>  <USAN Year>  (476) 
nan

>  <USAN Stem Definition>  (476) 
nan

>  <USAN Stem Substem>  (476) 
nan

>  <First Approval>  (476) 
nan

>  <ATC Codes>  (476) 
nan

>  <Level 4 ATC Codes>  (476) 
nan

>  <Level 3 ATC Codes>  (476) 
nan

>  <Level 2 ATC Codes>  (476) 
nan

>  <Level 1 ATC Codes>  (476) 
nan

>  <Indication Class>  (476) 
nan

>  <Patent>  (476) 
nan

>  <Drug Type>  (476) 
1:Synthetic Small Molecule

>  <Passes Rule of Five>  (476) 
False

>  <First In Class>  (476) 
False

>  <Chirality>  (476) 
Single Stereoisomer

>  <Prodrug>  (476) 
False

>  <Oral>  (476) 
False

>  <Parenteral>  (476) 
False

>  <Topical>  (476) 
False

>  <Black Box>  (476) 
False

>  <Availability Type>  (476) 
Unknown

>  <Withdrawn Year>  (476) 
nan

>  <Withdrawn Reason>  (476) 
nan

>  <Withdrawn Country>  (476) 
nan

>  <Withdrawn Class>  (476) 
nan

>  <SMILES>  (476) 
Cc1cc(C[C@@H](OC(=O)N2CCC(N3CCc4ccccc4NC3=O)CC2)C(=O)N2CCC(N3CCOCC3)CC2)cc(C)c1O

>  <InChi Key>  (476) 
HTLWMOKBJQKDIJ-UHFFFAOYSA-N

$$$$
CHEMBL126159
     RDKit          2D

 33 37  0  0  0  0  0  0  0  0999 V2000
    0.1998   10.6589    0.0000 C   0  0  0  0  0  0  0  0  0  0  0  0
   -1.2920   10.8157    0.0000 O   0  0  0  0  0  0  0  0  0  0  0  0
   -2.1737    9.6021    0.0000 C   0  0  0  0  0  0  0  0  0  0  0  0
   -1.5636    8.2318    0.0000 C   0  0  0  0  0  0  0  0  0  0  0  0
   -2.4452    7.0183    0.0000 C   0  0  0  0  0  0  0  0  0  0  0  0
   -1.8351    5.6480    0.0000 C   0  0  0  0  0  0  0  0  0  0  0  0
   -2.7168    4.4344    0.0000 C   0  0  0  0  0  0  0  0  0  0  0  0
   -4.2086    4.5912    0.0000 N   0  0  0  0  0  0  0  0  0  0  0  0
   -5.0903    3.3777    0.0000 C   0  0  0  0  0  0  0  0  0  0  0  0
   -6.5821    3.5345    0.0000 C   0  0  0  0  0  0  0  0  0  0  0  0
   -7.4637    2.3210    0.0000 C   0  0  0  0  0  0  0  0  0  0  0  0
   -8.9555    2.4778    0.0000 N   0  0  0  0  0  0  0  0  0  0  0  0
   -9.8372    1.2642    0.0000 C   0  0  0  0  0  0  0  0  0  0  0  0
  -11.3290    1.4210    0.0000 C   0  0  0  0  0  0  0  0  0  0  0  0
  -12.2107    0.2075    0.0000 O   0  0  0  0  0  0  0  0  0  0  0  0
   -4.8187    5.9616    0.0000 C   0  0  0  0  0  0  0  0  0  0  0  0
   -6.3105    6.1183    0.0000 O   0  0  0  0  0  0  0  0  0  0  0  0
   -3.9370    7.1751    0.0000 C   0  0  0  0  0  0  0  0  0  0  0  0
   -4.5471    8.5454    0.0000 C   0  0  0  0  0  0  0  0  0  0  0  0
   -3.6655    9.7589    0.0000 C   0  0  0  0  0  0  0  0  0  0  0  0
   -4.2756   11.1292    0.0000 O   0  0  0  0  0  0  0  0  0  0  0  0
   -5.7673   11.2860    0.0000 C   0  0  0  0  0  0  0  0  0  0  0  0
   -1.8351    3.2209    0.0000 C   0  0  0  0  0  0  0  0  0  0  0  0
   -2.1470    1.7537    0.0000 C   0  0  0  0  0  0  0  0  0  0  0  0
   -1.0323    0.7500    0.0000 C   0  0  0  0  0  0  0  0  0  0  0  0
    0.3943    1.2135    0.0000 C   0  0  0  0  0  0  0  0  0  0  0  0
    0.7062    2.6807    0.0000 C   0  0  0  0  0  0  0  0  0  0  0  0
   -0.4086    3.6844    0.0000 C   0  0  0  0  0  0  0  0  0  0  0  0
   -0.4086    5.1844    0.0000 C   0  0  0  0  0  0  0  0  0  0  0  0
    0.8050    6.0661    0.0000 O   0  0  0  0  0  0  0  0  0  0  0  0
    1.2760    0.0000    0.0000 O   0  0  0  0  0  0  0  0  0  0  0  0
    0.3943   -1.2135    0.0000 C   0  0  0  0  0  0  0  0  0  0  0  0
   -1.0323   -0.7500    0.0000 O   0  0  0  0  0  0  0  0  0  0  0  0
  1  2  1  0
  2  3  1  0
  3  4  2  0
  4  5  1  0
  5  6  1  0
  6  7  2  0
  7  8  1  0
  8  9  1  0
  9 10  1  0
 10 11  1  0
 11 12  1  0
 12 13  1  0
 13 14  1  0
 14 15  1  0
  8 16  1  0
 16 17  2  0
 16 18  1  0
 18 19  1  0
 19 20  2  0
 20 21  1  0
 21 22  1  0
  7 23  1  0
 23 24  2  0
 24 25  1  0
 25 26  2  0
 26 27  1  0
 27 28  2  0
 28 29  1  0
 29 30  2  0
 26 31  1  0
 31 32  1  0
 32 33  1  0
 20  3  1  0
 28 23  1  0
 18  5  2  0
 33 25  1  0
 29  6  1  0
M  END
>  <Synonyms>  (477) 
LMP-744|LMP744|MJ-III-65|NSC-706744

>  <Research Codes>  (477) 
MJ-III-65|NSC-706744

>  <Phase>  (477) 
1

>  <Applicants>  (477) 
nan

>  <USAN Stem>  (477) 
nan

>  <USAN Year>  (477) 
nan

>  <USAN Stem Definition>  (477) 
nan

>  <USAN Stem Substem>  (477) 
nan

>  <First Approval>  (477) 
nan

>  <ATC Codes>  (477) 
nan

>  <Level 4 ATC Codes>  (477) 
nan

>  <Level 3 ATC Codes>  (477) 
nan

>  <Level 2 ATC Codes>  (477) 
nan

>  <Level 1 ATC Codes>  (477) 
nan

>  <Indication Class>  (477) 
nan

>  <Patent>  (477) 
nan

>  <Drug Type>  (477) 
1:Synthetic Small Molecule

>  <Passes Rule of Five>  (477) 
True

>  <First In Class>  (477) 
False

>  <Chirality>  (477) 
Achiral Molecule

>  <Prodrug>  (477) 
False

>  <Oral>  (477) 
False

>  <Parenteral>  (477) 
False

>  <Topical>  (477) 
False

>  <Black Box>  (477) 
False

>  <Availability Type>  (477) 
Unknown

>  <Withdrawn Year>  (477) 
nan

>  <Withdrawn Reason>  (477) 
nan

>  <Withdrawn Country>  (477) 
nan

>  <Withdrawn Class>  (477) 
nan

>  <SMILES>  (477) 
COc1cc2c3c(n(CCCNCCO)c(=O)c2cc1OC)-c1cc2c(cc1C3=O)OCO2

>  <InChi Key>  (477) 
QCSDJDQOJBQTDV-UHFFFAOYSA-N

$$$$
CHEMBL1822872
     RDKit          2D

 29 32  0  0  0  0  0  0  0  0999 V2000
    1.0978   -5.1648    0.0000 C   0  0  0  0  0  0  0  0  0  0  0  0
    1.2546   -3.6731    0.0000 C   0  0  0  0  0  0  0  0  0  0  0  0
    2.5537   -2.9231    0.0000 C   0  0  0  0  0  0  0  0  0  0  0  0
    2.2418   -1.4558    0.0000 O   0  0  0  0  0  0  0  0  0  0  0  0
    0.7500   -1.2990    0.0000 C   0  0  0  0  0  0  0  0  0  0  0  0
    1.5000    0.0000    0.0000 C   0  0  0  0  0  0  0  0  0  0  0  0
    0.7500    1.2990    0.0000 C   0  0  0  0  0  0  0  0  0  0  0  0
   -0.7500    1.2990    0.0000 N   0  0  0  0  0  0  0  0  0  0  0  0
   -1.5000    2.5981    0.0000 C   0  0  0  0  0  0  0  0  0  0  0  0
   -3.0000    2.5981    0.0000 N   0  0  0  0  0  0  0  0  0  0  0  0
   -3.7500    3.8971    0.0000 C   0  0  0  0  0  0  0  0  0  0  0  0
   -5.2500    3.8971    0.0000 O   0  0  0  0  0  0  0  0  0  0  0  0
   -3.0000    5.1962    0.0000 C   0  0  0  0  0  0  0  0  0  0  0  0
   -3.7500    6.4952    0.0000 C   0  0  0  0  0  0  0  0  0  0  0  0
   -3.0000    7.7942    0.0000 C   0  0  0  0  0  0  0  0  0  0  0  0
   -3.7500    9.0933    0.0000 C   0  0  0  0  0  0  0  0  0  0  0  0
   -4.5000   10.3923    0.0000 F   0  0  0  0  0  0  0  0  0  0  0  0
   -2.4510    9.8433    0.0000 F   0  0  0  0  0  0  0  0  0  0  0  0
   -5.0490    8.3433    0.0000 F   0  0  0  0  0  0  0  0  0  0  0  0
   -1.5000    7.7942    0.0000 C   0  0  0  0  0  0  0  0  0  0  0  0
   -0.7500    6.4952    0.0000 C   0  0  0  0  0  0  0  0  0  0  0  0
    0.7500    6.4952    0.0000 N   0  0  0  0  0  4  0  0  0  0  0  0
    1.5000    5.1962    0.0000 O   0  0  0  0  0  0  0  0  0  0  0  0
    1.5000    7.7942    0.0000 O   0  0  0  0  0  1  0  0  0  0  0  0
   -1.5000    5.1962    0.0000 C   0  0  0  0  0  0  0  0  0  0  0  0
   -0.7500    3.8971    0.0000 S   0  0  0  0  0  0  0  0  0  0  0  0
   -1.5000    0.0000    0.0000 C   0  0  0  0  0  0  0  0  0  0  0  0
   -0.7500   -1.2990    0.0000 C   0  0  0  0  0  0  0  0  0  0  0  0
    0.1399   -2.6694    0.0000 O   0  0  0  0  0  0  0  0  0  0  0  0
  2  1  1  6
  2  3  1  0
  3  4  1  0
  4  5  1  0
  5  6  1  0
  6  7  1  0
  7  8  1  0
  8  9  1  0
  9 10  2  0
 10 11  1  0
 11 12  2  0
 11 13  1  0
 13 14  2  0
 14 15  1  0
 15 16  1  0
 16 17  1  0
 16 18  1  0
 16 19  1  0
 15 20  2  0
 20 21  1  0
 21 22  1  0
 22 23  2  0
 22 24  1  0
 21 25  2  0
 25 26  1  0
  8 27  1  0
 27 28  1  0
  5 29  1  0
 29  2  1  0
 28  5  1  0
 26  9  1  0
 25 13  1  0
M  CHG  2  22   1  24  -1
M  END
>  <Synonyms>  (478) 
BTZ-043|BTZ-10526043

>  <Research Codes>  (478) 
BTZ-10526043

>  <Phase>  (478) 
1

>  <Applicants>  (478) 
nan

>  <USAN Stem>  (478) 
nan

>  <USAN Year>  (478) 
nan

>  <USAN Stem Definition>  (478) 
nan

>  <USAN Stem Substem>  (478) 
nan

>  <First Approval>  (478) 
nan

>  <ATC Codes>  (478) 
nan

>  <Level 4 ATC Codes>  (478) 
nan

>  <Level 3 ATC Codes>  (478) 
nan

>  <Level 2 ATC Codes>  (478) 
nan

>  <Level 1 ATC Codes>  (478) 
nan

>  <Indication Class>  (478) 
nan

>  <Patent>  (478) 
nan

>  <Drug Type>  (478) 
1:Synthetic Small Molecule

>  <Passes Rule of Five>  (478) 
True

>  <First In Class>  (478) 
False

>  <Chirality>  (478) 
Single Stereoisomer

>  <Prodrug>  (478) 
False

>  <Oral>  (478) 
False

>  <Parenteral>  (478) 
False

>  <Topical>  (478) 
False

>  <Black Box>  (478) 
False

>  <Availability Type>  (478) 
Unknown

>  <Withdrawn Year>  (478) 
nan

>  <Withdrawn Reason>  (478) 
nan

>  <Withdrawn Country>  (478) 
nan

>  <Withdrawn Class>  (478) 
nan

>  <SMILES>  (478) 
C[C@H]1COC2(CCN(c3nc(=O)c4cc(C(F)(F)F)cc([N+](=O)[O-])c4s3)CC2)O1

>  <InChi Key>  (478) 
GTUIRORNXIOHQR-VIFPVBQESA-N

$$$$
CHEMBL284116
     RDKit          2D

  8  7  0  0  0  0  0  0  0  0999 V2000
   -1.2990    0.7500    0.0000 N   0  0  0  0  0  0  0  0  0  0  0  0
    0.0000    0.0000    0.0000 C   0  0  0  0  0  0  0  0  0  0  0  0
    1.2990    0.7500    0.0000 C   0  0  0  0  0  0  0  0  0  0  0  0
    2.5981   -0.0000    0.0000 C   0  0  0  0  0  0  0  0  0  0  0  0
    3.8971    0.7500    0.0000 C   0  0  0  0  0  0  0  0  0  0  0  0
    5.1962   -0.0000    0.0000 C   0  0  0  0  0  0  0  0  0  0  0  0
    6.4952    0.7500    0.0000 O   0  0  0  0  0  0  0  0  0  0  0  0
    5.1962   -1.5000    0.0000 O   0  0  0  0  0  0  0  0  0  0  0  0
  1  2  1  0
  2  3  1  0
  3  4  1  0
  4  5  1  0
  5  6  1  0
  6  7  2  0
  6  8  1  0
M  END
>  <Synonyms>  (479) 
5-Amino-Pentanoic Acid|5-Aminopentanoic Acid|5-Aminovaleric acid|5-Ammoniopentanoate|DAVA|Delta-Aminovalerianic Acid

>  <Research Codes>  (479) 
nan

>  <Phase>  (479) 
1

>  <Applicants>  (479) 
nan

>  <USAN Stem>  (479) 
nan

>  <USAN Year>  (479) 
nan

>  <USAN Stem Definition>  (479) 
nan

>  <USAN Stem Substem>  (479) 
nan

>  <First Approval>  (479) 
nan

>  <ATC Codes>  (479) 
nan

>  <Level 4 ATC Codes>  (479) 
nan

>  <Level 3 ATC Codes>  (479) 
nan

>  <Level 2 ATC Codes>  (479) 
nan

>  <Level 1 ATC Codes>  (479) 
nan

>  <Indication Class>  (479) 
nan

>  <Patent>  (479) 
nan

>  <Drug Type>  (479) 
1:Synthetic Small Molecule

>  <Passes Rule of Five>  (479) 
True

>  <First In Class>  (479) 
False

>  <Chirality>  (479) 
Unknown

>  <Prodrug>  (479) 
False

>  <Oral>  (479) 
False

>  <Parenteral>  (479) 
False

>  <Topical>  (479) 
False

>  <Black Box>  (479) 
False

>  <Availability Type>  (479) 
Unknown

>  <Withdrawn Year>  (479) 
nan

>  <Withdrawn Reason>  (479) 
nan

>  <Withdrawn Country>  (479) 
nan

>  <Withdrawn Class>  (479) 
nan

>  <SMILES>  (479) 
NCCCCC(=O)O

>  <InChi Key>  (479) 
JJMDCOVWQOJGCB-UHFFFAOYSA-N

$$$$
CHEMBL3976807
     RDKit          2D

 44 48  0  0  0  0  0  0  0  0999 V2000
    6.7500   -3.8971    0.0000 C   0  0  0  0  0  0  0  0  0  0  0  0
    6.0000   -5.1962    0.0000 C   0  0  0  0  0  0  0  0  0  0  0  0
    6.7500   -6.4952    0.0000 C   0  0  0  0  0  0  0  0  0  0  0  0
    6.0000   -7.7942    0.0000 C   0  0  0  0  0  0  0  0  0  0  0  0
    6.7500   -9.0933    0.0000 N   0  0  0  0  0  0  0  0  0  0  0  0
    8.2418   -9.2501    0.0000 C   0  0  0  0  0  0  0  0  0  0  0  0
    9.2455   -8.1353    0.0000 O   0  0  0  0  0  0  0  0  0  0  0  0
    8.5537  -10.7173    0.0000 N   0  0  0  0  0  0  0  0  0  0  0  0
    7.2546  -11.4673    0.0000 C   0  0  0  0  0  0  0  0  0  0  0  0
    7.0978  -12.9591    0.0000 O   0  0  0  0  0  0  0  0  0  0  0  0
    6.1399  -10.4636    0.0000 C   0  0  0  0  0  0  0  0  0  0  0  0
    5.2582  -11.6771    0.0000 C   0  0  0  0  0  0  0  0  0  0  0  0
    4.8409   -9.7136    0.0000 C   0  0  0  0  0  0  0  0  0  0  0  0
    4.5000   -7.7942    0.0000 C   0  0  0  0  0  0  0  0  0  0  0  0
    3.7500   -6.4952    0.0000 C   0  0  0  0  0  0  0  0  0  0  0  0
    2.2500   -6.4952    0.0000 C   0  0  0  0  0  0  0  0  0  0  0  0
    4.5000   -5.1962    0.0000 C   0  0  0  0  0  0  0  0  0  0  0  0
    3.7500   -3.8971    0.0000 C   0  0  0  0  0  0  0  0  0  0  0  0
    2.2500   -3.8971    0.0000 C   0  0  0  0  0  0  0  0  0  0  0  0
    1.5000   -2.5981    0.0000 S   0  0  0  0  0  0  0  0  0  0  0  0
    2.7990   -1.8481    0.0000 O   0  0  0  0  0  0  0  0  0  0  0  0
    0.2010   -3.3481    0.0000 O   0  0  0  0  0  0  0  0  0  0  0  0
    0.7500   -1.2990    0.0000 N   0  0  0  0  0  0  0  0  0  0  0  0
    1.5000    0.0000    0.0000 C   0  0  0  0  0  0  0  0  0  0  0  0
    0.7500    1.2990    0.0000 C   0  0  0  0  0  0  0  0  0  0  0  0
   -0.7500    1.2990    0.0000 C   0  0  0  0  0  0  0  0  0  0  0  0
   -1.5000    0.0000    0.0000 C   0  0  0  0  0  0  0  0  0  0  0  0
   -0.7500   -1.2990    0.0000 C   0  0  0  0  0  0  0  0  0  0  0  0
   -2.2418    1.4558    0.0000 N   0  0  0  0  0  0  0  0  0  0  0  0
   -2.5537    2.9231    0.0000 C   0  0  0  0  0  0  0  0  0  0  0  0
   -3.9240    3.5332    0.0000 C   0  0  0  0  0  0  0  0  0  0  0  0
   -4.0808    5.0249    0.0000 C   0  0  0  0  0  0  0  0  0  0  0  0
   -5.4511    5.6350    0.0000 C   0  0  0  0  0  0  0  0  0  0  0  0
   -6.6646    4.7534    0.0000 C   0  0  0  0  0  0  0  0  0  0  0  0
   -8.0349    5.3635    0.0000 O   0  0  0  0  0  0  0  0  0  0  0  0
   -8.1917    6.8553    0.0000 C   0  0  0  0  0  0  0  0  0  0  0  0
   -8.3485    8.3470    0.0000 F   0  0  0  0  0  0  0  0  0  0  0  0
   -9.6835    6.6985    0.0000 F   0  0  0  0  0  0  0  0  0  0  0  0
   -6.6999    7.0120    0.0000 F   0  0  0  0  0  0  0  0  0  0  0  0
   -6.5078    3.2616    0.0000 C   0  0  0  0  0  0  0  0  0  0  0  0
   -5.1375    2.6515    0.0000 C   0  0  0  0  0  0  0  0  0  0  0  0
   -1.2546    3.6731    0.0000 N   0  0  0  0  0  0  0  0  0  0  0  0
   -0.1399    2.6694    0.0000 C   0  0  0  0  0  0  0  0  0  0  0  0
    1.3273    2.9812    0.0000 O   0  0  0  0  0  0  0  0  0  0  0  0
  1  2  1  0
  2  3  2  0
  3  4  1  0
  4  5  1  0
  5  6  1  0
  6  7  2  0
  6  8  1  0
  8  9  1  0
  9 10  2  0
  9 11  1  0
 11 12  1  0
 11 13  1  0
  4 14  2  0
 14 15  1  0
 15 16  1  0
 15 17  2  0
 17 18  1  0
 18 19  1  0
 19 20  1  0
 20 21  2  0
 20 22  2  0
 20 23  1  0
 23 24  1  0
 24 25  1  0
 25 26  1  0
 26 27  1  0
 27 28  1  0
 26 29  1  0
 29 30  2  0
 30 31  1  0
 31 32  2  0
 32 33  1  0
 33 34  2  0
 34 35  1  0
 35 36  1  0
 36 37  1  0
 36 38  1  0
 36 39  1  0
 34 40  1  0
 40 41  2  0
 30 42  1  0
 42 43  1  0
 43 44  2  0
 17  2  1  0
 28 23  1  0
 41 31  1  0
 11  5  1  0
 43 26  1  0
M  END
>  <Synonyms>  (480) 
PCO-371|PCO371

>  <Research Codes>  (480) 
PCO371

>  <Phase>  (480) 
1

>  <Applicants>  (480) 
nan

>  <USAN Stem>  (480) 
nan

>  <USAN Year>  (480) 
nan

>  <USAN Stem Definition>  (480) 
nan

>  <USAN Stem Substem>  (480) 
nan

>  <First Approval>  (480) 
nan

>  <ATC Codes>  (480) 
nan

>  <Level 4 ATC Codes>  (480) 
nan

>  <Level 3 ATC Codes>  (480) 
nan

>  <Level 2 ATC Codes>  (480) 
nan

>  <Level 1 ATC Codes>  (480) 
nan

>  <Indication Class>  (480) 
nan

>  <Patent>  (480) 
nan

>  <Drug Type>  (480) 
1:Synthetic Small Molecule

>  <Passes Rule of Five>  (480) 
False

>  <First In Class>  (480) 
False

>  <Chirality>  (480) 
Achiral Molecule

>  <Prodrug>  (480) 
False

>  <Oral>  (480) 
False

>  <Parenteral>  (480) 
False

>  <Topical>  (480) 
False

>  <Black Box>  (480) 
False

>  <Availability Type>  (480) 
Unknown

>  <Withdrawn Year>  (480) 
nan

>  <Withdrawn Reason>  (480) 
nan

>  <Withdrawn Country>  (480) 
nan

>  <Withdrawn Class>  (480) 
nan

>  <SMILES>  (480) 
Cc1cc(N2C(=O)NC(=O)C2(C)C)cc(C)c1CCS(=O)(=O)N1CCC2(CC1)N=C(c1ccc(OC(F)(F)F)cc1)NC2=O

>  <InChi Key>  (480) 
LDZJFVOUPUFOHX-UHFFFAOYSA-N

$$$$
CHEMBL285347
     RDKit          2D

 24 27  0  0  0  0  0  0  0  0999 V2000
    2.6783   11.3652    0.0000 C   0  0  0  0  0  0  0  0  0  0  0  0
    1.4202   10.5482    0.0000 C   0  0  0  0  0  0  0  0  0  0  0  0
    0.0837   11.2292    0.0000 O   0  0  0  0  0  0  0  0  0  0  0  0
    1.4988    9.0503    0.0000 C   0  0  0  0  0  0  0  0  0  0  0  0
    2.6135    8.0466    0.0000 C   0  0  0  0  0  0  0  0  0  0  0  0
    4.1114    8.1251    0.0000 O   0  0  0  0  0  0  0  0  0  0  0  0
    1.6098    6.9319    0.0000 N   0  0  0  0  0  0  0  0  0  0  0  0
    0.9997    5.5616    0.0000 C   0  0  0  0  0  0  0  0  0  0  0  0
    1.7497    4.2625    0.0000 C   0  0  0  0  0  0  0  0  0  0  0  0
    0.9997    2.9635    0.0000 O   0  0  0  0  0  0  0  0  0  0  0  0
    3.2497    4.2625    0.0000 O   0  0  0  0  0  1  0  0  0  0  0  0
   -0.4921    5.7184    0.0000 C   0  0  0  0  0  0  0  0  0  0  0  0
   -1.4958    4.6036    0.0000 S   0  0  0  0  0  0  0  0  0  0  0  0
   -2.9630    4.9155    0.0000 C   0  0  0  0  0  0  0  0  0  0  0  0
   -3.5731    6.2858    0.0000 C   0  0  0  0  0  0  0  0  0  0  0  0
   -5.0649    6.1290    0.0000 N   0  0  0  0  0  0  0  0  0  0  0  0
   -6.3640    6.8790    0.0000 C   0  0  0  0  0  0  0  0  0  0  0  0
   -7.4787    5.8753    0.0000 N   0  0  0  0  0  0  0  0  0  0  0  0
   -6.8686    4.5050    0.0000 C   0  0  0  0  0  0  0  0  0  0  0  0
   -5.3768    4.6618    0.0000 N   0  0  0  0  0  4  0  0  0  0  0  0
   -4.0778    3.9118    0.0000 C   0  0  0  0  0  0  0  0  0  0  0  0
   -0.8040    7.1856    0.0000 C   0  0  0  0  0  0  0  0  0  0  0  0
   -2.1743    7.7957    0.0000 C   0  0  0  0  0  0  0  0  0  0  0  0
    0.4951    7.9356    0.0000 C   0  0  0  0  0  0  0  0  0  0  0  0
  2  1  1  6
  2  3  1  0
  2  4  1  0
  4  5  1  0
  5  6  2  0
  5  7  1  0
  7  8  1  0
  8  9  1  0
  9 10  2  0
  9 11  1  0
  8 12  1  0
 12 13  1  0
 13 14  1  0
 14 15  1  0
 15 16  1  0
 16 17  1  0
 17 18  2  0
 18 19  1  0
 19 20  2  0
 20 21  1  0
 12 22  2  0
 22 23  1  0
 24 22  1  6
 24  4  1  0
 24  7  1  0
 21 14  1  0
 20 16  1  0
M  CHG  2  11  -1  20   1
M  END
>  <Synonyms>  (481) 
BIAPENEM|CL 186,815|L-627|LJ C10,627|LJC-10627

>  <Research Codes>  (481) 
CL-186815|L-627|LJ-C10627|LJC-10627

>  <Phase>  (481) 
1

>  <Applicants>  (481) 
nan

>  <USAN Stem>  (481) 
'-penem'

>  <USAN Year>  (481) 
1993.0

>  <USAN Stem Definition>  (481) 
antibacterial antibiotics, carbapenem derivatives

>  <USAN Stem Substem>  (481) 
'-penem(-penem)'

>  <First Approval>  (481) 
nan

>  <ATC Codes>  (481) 
J01DH05

>  <Level 4 ATC Codes>  (481) 
J01DH - Carbapenems

>  <Level 3 ATC Codes>  (481) 
J01D - OTHER BETA-LACTAM ANTIBACTERIALS

>  <Level 2 ATC Codes>  (481) 
J01 - ANTIBACTERIALS FOR SYSTEMIC USE

>  <Level 1 ATC Codes>  (481) 
J - ANTIINFECTIVES FOR SYSTEMIC USE

>  <Indication Class>  (481) 
Antibacterial

>  <Patent>  (481) 
nan

>  <Drug Type>  (481) 
7:Natural Product-derived

>  <Passes Rule of Five>  (481) 
True

>  <First In Class>  (481) 
False

>  <Chirality>  (481) 
Racemic Mixture

>  <Prodrug>  (481) 
False

>  <Oral>  (481) 
False

>  <Parenteral>  (481) 
False

>  <Topical>  (481) 
False

>  <Black Box>  (481) 
False

>  <Availability Type>  (481) 
Unknown

>  <Withdrawn Year>  (481) 
nan

>  <Withdrawn Reason>  (481) 
nan

>  <Withdrawn Country>  (481) 
nan

>  <Withdrawn Class>  (481) 
nan

>  <SMILES>  (481) 
C[C@@H](O)[C@H]1C(=O)N2C(C(=O)[O-])=C(SC3Cn4cnc[n+]4C3)[C@H](C)[C@H]12

>  <InChi Key>  (481) 
URBKURHLTOGSSM-AKZNXDQDSA-N

$$$$
CHEMBL272621
     RDKit          2D

 28 31  0  0  0  0  0  0  0  0999 V2000
   -5.2020   -8.5535    0.0000 C   0  0  0  0  0  0  0  0  0  0  0  0
   -4.8901   -7.0863    0.0000 C   0  0  0  0  0  0  0  0  0  0  0  0
   -6.0048   -6.0826    0.0000 C   0  0  0  0  0  0  0  0  0  0  0  0
   -7.4314   -6.5461    0.0000 C   0  0  0  0  0  0  0  0  0  0  0  0
   -8.5461   -5.5424    0.0000 C   0  0  0  0  0  0  0  0  0  0  0  0
   -8.2343   -4.0752    0.0000 O   0  0  0  0  0  0  0  0  0  0  0  0
   -9.9727   -6.0059    0.0000 O   0  0  0  0  0  0  0  0  0  0  0  0
   -3.4635   -6.6227    0.0000 C   0  0  0  0  0  0  0  0  0  0  0  0
   -2.2500   -7.5044    0.0000 C   0  0  0  0  0  0  0  0  0  0  0  0
   -1.0365   -6.6227    0.0000 C   0  0  0  0  0  0  0  0  0  0  0  0
   -1.5000   -5.1962    0.0000 C   0  0  0  0  0  0  0  0  0  0  0  0
   -0.7500   -3.8971    0.0000 C   0  0  0  0  0  0  0  0  0  0  0  0
    0.7500   -3.8971    0.0000 C   0  0  0  0  0  0  0  0  0  0  0  0
    1.5000   -2.5981    0.0000 C   0  0  0  0  0  0  0  0  0  0  0  0
    3.0000   -2.5981    0.0000 O   0  0  0  0  0  0  0  0  0  0  0  0
    0.7500   -1.2990    0.0000 C   0  0  0  0  0  0  0  0  0  0  0  0
    1.5000    0.0000    0.0000 C   0  0  0  0  0  0  0  0  0  0  0  0
    0.7500    1.2990    0.0000 C   0  0  0  0  0  0  0  0  0  0  0  0
    1.5000    2.5981    0.0000 O   0  0  0  0  0  0  0  0  0  0  0  0
   -0.7500    1.2990    0.0000 C   0  0  0  0  0  0  0  0  0  0  0  0
   -1.5000    0.0000    0.0000 C   0  0  0  0  0  0  0  0  0  0  0  0
   -0.7500   -1.2990    0.0000 C   0  0  0  0  0  0  0  0  0  0  0  0
   -2.2500   -1.2990    0.0000 C   0  0  0  0  0  0  0  0  0  0  0  0
   -1.5000   -2.5981    0.0000 C   0  0  0  0  0  0  0  0  0  0  0  0
   -3.0000   -2.5981    0.0000 C   0  0  0  0  0  0  0  0  0  0  0  0
   -3.7500   -3.8971    0.0000 C   0  0  0  0  0  0  0  0  0  0  0  0
   -3.0000   -5.1962    0.0000 C   0  0  0  0  0  0  0  0  0  0  0  0
   -4.4918   -5.3529    0.0000 C   0  0  0  0  0  0  0  0  0  0  0  0
  2  1  1  6
  2  3  1  0
  3  4  1  0
  4  5  1  0
  5  6  2  0
  5  7  1  0
  2  8  1  0
  8  9  1  6
  9 10  1  0
 11 10  1  6
 11 12  1  0
 12 13  1  1
 13 14  1  0
 14 15  1  1
 14 16  1  0
 16 17  1  1
 17 18  1  0
 18 19  1  1
 18 20  1  0
 20 21  1  0
 21 22  1  0
 22 23  1  6
 22 24  1  0
 24 25  1  6
 25 26  1  0
 26 27  1  0
 27 28  1  6
 27  8  1  0
 27 11  1  0
 24 12  1  0
 22 16  1  0
M  END
>  <Synonyms>  (482) 
AHRO-001|HDCA|HYODEOXYCHOLIC_ACID

>  <Research Codes>  (482) 
AHRO-001

>  <Phase>  (482) 
1

>  <Applicants>  (482) 
nan

>  <USAN Stem>  (482) 
nan

>  <USAN Year>  (482) 
nan

>  <USAN Stem Definition>  (482) 
nan

>  <USAN Stem Substem>  (482) 
nan

>  <First Approval>  (482) 
nan

>  <ATC Codes>  (482) 
nan

>  <Level 4 ATC Codes>  (482) 
nan

>  <Level 3 ATC Codes>  (482) 
nan

>  <Level 2 ATC Codes>  (482) 
nan

>  <Level 1 ATC Codes>  (482) 
nan

>  <Indication Class>  (482) 
nan

>  <Patent>  (482) 
nan

>  <Drug Type>  (482) 
7:Natural Product-derived

>  <Passes Rule of Five>  (482) 
True

>  <First In Class>  (482) 
False

>  <Chirality>  (482) 
Single Stereoisomer

>  <Prodrug>  (482) 
False

>  <Oral>  (482) 
False

>  <Parenteral>  (482) 
False

>  <Topical>  (482) 
False

>  <Black Box>  (482) 
False

>  <Availability Type>  (482) 
Unknown

>  <Withdrawn Year>  (482) 
nan

>  <Withdrawn Reason>  (482) 
nan

>  <Withdrawn Country>  (482) 
nan

>  <Withdrawn Class>  (482) 
nan

>  <SMILES>  (482) 
C[C@H](CCC(=O)O)[C@H]1CC[C@H]2[C@@H]3C[C@H](O)[C@@H]4C[C@H](O)CC[C@]4(C)[C@H]3CC[C@@]21C

>  <InChi Key>  (482) 
DGABKXLVXPYZII-SIBKNCMHSA-N

$$$$
CHEMBL2180604
     RDKit          2D

 33 37  0  0  0  0  0  0  0  0999 V2000
    4.6740  -12.6264    0.0000 C   0  0  0  0  0  0  0  0  0  0  0  0
    3.3037  -12.0163    0.0000 C   0  0  0  0  0  0  0  0  0  0  0  0
    2.9918  -10.5491    0.0000 C   0  0  0  0  0  0  0  0  0  0  0  0
    1.5000  -10.3923    0.0000 C   0  0  0  0  0  0  0  0  0  0  0  0
    0.7500   -9.0933    0.0000 C   0  0  0  0  0  0  0  0  0  0  0  0
   -0.7500   -9.0933    0.0000 O   0  0  0  0  0  0  0  0  0  0  0  0
    1.5000   -7.7942    0.0000 N   0  0  0  0  0  0  0  0  0  0  0  0
    0.7500   -6.4952    0.0000 C   0  0  0  0  0  0  0  0  0  0  0  0
    1.5000   -5.1962    0.0000 C   0  0  0  0  0  0  0  0  0  0  0  0
    0.7500   -3.8971    0.0000 C   0  0  0  0  0  0  0  0  0  0  0  0
    1.5000   -2.5981    0.0000 O   0  0  0  0  0  0  0  0  0  0  0  0
    0.7500   -1.2990    0.0000 C   0  0  0  0  0  0  0  0  0  0  0  0
    1.5000    0.0000    0.0000 C   0  0  0  0  0  0  0  0  0  0  0  0
    0.7500    1.2990    0.0000 C   0  0  0  0  0  0  0  0  0  0  0  0
   -0.7500    1.2990    0.0000 C   0  0  0  0  0  0  0  0  0  0  0  0
   -1.7537    2.4138    0.0000 N   0  0  0  0  0  0  0  0  0  0  0  0
   -3.1240    1.8037    0.0000 C   0  0  0  0  0  0  0  0  0  0  0  0
   -4.4231    2.5537    0.0000 N   0  0  0  0  0  0  0  0  0  0  0  0
   -4.4231    4.0537    0.0000 C   0  0  0  0  0  0  0  0  0  0  0  0
   -3.1240    4.8037    0.0000 O   0  0  0  0  0  0  0  0  0  0  0  0
   -5.7221    4.8037    0.0000 C   0  0  0  0  0  0  0  0  0  0  0  0
   -7.2221    4.8037    0.0000 C   0  0  0  0  0  0  0  0  0  0  0  0
   -6.4721    6.1027    0.0000 C   0  0  0  0  0  0  0  0  0  0  0  0
   -2.9672    0.3119    0.0000 C   0  0  0  0  0  0  0  0  0  0  0  0
   -1.5000    0.0000    0.0000 N   0  0  0  0  0  0  0  0  0  0  0  0
   -0.7500   -1.2990    0.0000 N   0  0  0  0  0  0  0  0  0  0  0  0
   -0.7500   -3.8971    0.0000 C   0  0  0  0  0  0  0  0  0  0  0  0
   -1.5000   -5.1962    0.0000 C   0  0  0  0  0  0  0  0  0  0  0  0
   -0.7500   -6.4952    0.0000 C   0  0  0  0  0  0  0  0  0  0  0  0
   -1.5000   -7.7942    0.0000 C   0  0  0  0  0  0  0  0  0  0  0  0
    0.8899  -11.7626    0.0000 N   0  0  0  0  0  0  0  0  0  0  0  0
   -0.5773  -12.0745    0.0000 C   0  0  0  0  0  0  0  0  0  0  0  0
    2.0046  -12.7663    0.0000 N   0  0  0  0  0  0  0  0  0  0  0  0
  1  2  1  0
  2  3  1  0
  3  4  2  0
  4  5  1  0
  5  6  2  0
  5  7  1  0
  7  8  1  0
  8  9  2  0
  9 10  1  0
 10 11  1  0
 11 12  1  0
 12 13  1  0
 13 14  2  0
 14 15  1  0
 15 16  2  0
 16 17  1  0
 17 18  1  0
 18 19  1  0
 19 20  2  0
 19 21  1  0
 21 22  1  0
 22 23  1  0
 17 24  2  0
 24 25  1  0
 25 26  1  0
 10 27  2  0
 27 28  1  0
 28 29  2  0
 29 30  1  0
  4 31  1  0
 31 32  1  0
 31 33  1  0
 33  2  2  0
 29  8  1  0
 26 12  2  0
 25 15  1  0
 23 21  1  0
M  END
>  <Synonyms>  (483) 
TAK 593|TAK-593

>  <Research Codes>  (483) 
TAK 593|TAK-593

>  <Phase>  (483) 
1

>  <Applicants>  (483) 
nan

>  <USAN Stem>  (483) 
nan

>  <USAN Year>  (483) 
nan

>  <USAN Stem Definition>  (483) 
nan

>  <USAN Stem Substem>  (483) 
nan

>  <First Approval>  (483) 
nan

>  <ATC Codes>  (483) 
nan

>  <Level 4 ATC Codes>  (483) 
nan

>  <Level 3 ATC Codes>  (483) 
nan

>  <Level 2 ATC Codes>  (483) 
nan

>  <Level 1 ATC Codes>  (483) 
nan

>  <Indication Class>  (483) 
nan

>  <Patent>  (483) 
nan

>  <Drug Type>  (483) 
1:Synthetic Small Molecule

>  <Passes Rule of Five>  (483) 
True

>  <First In Class>  (483) 
False

>  <Chirality>  (483) 
Achiral Molecule

>  <Prodrug>  (483) 
False

>  <Oral>  (483) 
False

>  <Parenteral>  (483) 
False

>  <Topical>  (483) 
False

>  <Black Box>  (483) 
False

>  <Availability Type>  (483) 
Unknown

>  <Withdrawn Year>  (483) 
nan

>  <Withdrawn Reason>  (483) 
nan

>  <Withdrawn Country>  (483) 
nan

>  <Withdrawn Class>  (483) 
nan

>  <SMILES>  (483) 
Cc1cc(C(=O)Nc2cc(Oc3ccc4nc(NC(=O)C5CC5)cn4n3)ccc2C)n(C)n1

>  <InChi Key>  (483) 
DZFZXPPHBWCXPQ-UHFFFAOYSA-N

$$$$
CHEMBL17289
     RDKit          2D

 26 27  0  0  0  0  0  0  0  0999 V2000
    4.5000  -15.5885    0.0000 N   0  0  0  0  0  0  0  0  0  0  0  0
    3.7500  -14.2894    0.0000 C   0  0  0  0  0  0  0  0  0  0  0  0
    3.0000  -12.9904    0.0000 N   0  0  0  0  0  0  0  0  0  0  0  0
    1.5000  -12.9904    0.0000 C   0  0  0  0  0  0  0  0  0  0  0  0
    0.7500  -11.6913    0.0000 N   0  0  0  0  0  0  0  0  0  0  0  0
    1.5000  -10.3923    0.0000 C   0  0  0  0  0  0  0  0  0  0  0  0
    0.7500   -9.0933    0.0000 C   0  0  0  0  0  0  0  0  0  0  0  0
    1.5000   -7.7942    0.0000 C   0  0  0  0  0  0  0  0  0  0  0  0
    0.7500   -6.4952    0.0000 C   0  0  0  0  0  0  0  0  0  0  0  0
    1.5000   -5.1962    0.0000 C   0  0  0  0  0  0  0  0  0  0  0  0
    0.7500   -3.8971    0.0000 C   0  0  0  0  0  0  0  0  0  0  0  0
    1.5000   -2.5981    0.0000 O   0  0  0  0  0  0  0  0  0  0  0  0
    0.7500   -1.2990    0.0000 C   0  0  0  0  0  0  0  0  0  0  0  0
    1.5000    0.0000    0.0000 C   0  0  0  0  0  0  0  0  0  0  0  0
    0.7500    1.2990    0.0000 C   0  0  0  0  0  0  0  0  0  0  0  0
   -0.7500    1.2990    0.0000 C   0  0  0  0  0  0  0  0  0  0  0  0
   -1.5000    2.5981    0.0000 Cl  0  0  0  0  0  0  0  0  0  0  0  0
   -1.5000    0.0000    0.0000 C   0  0  0  0  0  0  0  0  0  0  0  0
   -0.7500   -1.2990    0.0000 C   0  0  0  0  0  0  0  0  0  0  0  0
    0.7500  -14.2894    0.0000 N   0  0  0  0  0  0  0  0  0  0  0  0
    1.5000  -15.5885    0.0000 C   0  0  0  0  0  0  0  0  0  0  0  0
    0.7500  -16.8875    0.0000 C   0  0  0  0  0  0  0  0  0  0  0  0
    1.5000  -18.1865    0.0000 C   0  0  0  0  0  0  0  0  0  0  0  0
    3.0000  -18.1865    0.0000 N   0  0  0  0  0  0  0  0  0  0  0  0
    3.7500  -16.8875    0.0000 C   0  0  0  0  0  0  0  0  0  0  0  0
    3.0000  -15.5885    0.0000 C   0  0  0  0  0  0  0  0  0  0  0  0
  1  2  3  0
  2  3  1  0
  3  4  2  3
  4  5  1  0
  5  6  1  0
  6  7  1  0
  7  8  1  0
  8  9  1  0
  9 10  1  0
 10 11  1  0
 11 12  1  0
 12 13  1  0
 13 14  2  0
 14 15  1  0
 15 16  2  0
 16 17  1  0
 16 18  1  0
 18 19  2  0
  4 20  1  0
 20 21  2  3
 21 22  1  0
 22 23  2  0
 23 24  1  0
 24 25  1  0
 25 26  2  0
 19 13  1  0
 26 21  1  0
M  END
>  <Synonyms>  (484) 
CHS 828|CHS-828|GMX 1778|GMX-1778

>  <Research Codes>  (484) 
CHS 828|GMX 1778|GMX-1778

>  <Phase>  (484) 
1

>  <Applicants>  (484) 
nan

>  <USAN Stem>  (484) 
nan

>  <USAN Year>  (484) 
nan

>  <USAN Stem Definition>  (484) 
nan

>  <USAN Stem Substem>  (484) 
nan

>  <First Approval>  (484) 
nan

>  <ATC Codes>  (484) 
nan

>  <Level 4 ATC Codes>  (484) 
nan

>  <Level 3 ATC Codes>  (484) 
nan

>  <Level 2 ATC Codes>  (484) 
nan

>  <Level 1 ATC Codes>  (484) 
nan

>  <Indication Class>  (484) 
nan

>  <Patent>  (484) 
nan

>  <Drug Type>  (484) 
1:Synthetic Small Molecule

>  <Passes Rule of Five>  (484) 
True

>  <First In Class>  (484) 
False

>  <Chirality>  (484) 
Achiral Molecule

>  <Prodrug>  (484) 
False

>  <Oral>  (484) 
False

>  <Parenteral>  (484) 
False

>  <Topical>  (484) 
False

>  <Black Box>  (484) 
False

>  <Availability Type>  (484) 
Unknown

>  <Withdrawn Year>  (484) 
nan

>  <Withdrawn Reason>  (484) 
nan

>  <Withdrawn Country>  (484) 
nan

>  <Withdrawn Class>  (484) 
nan

>  <SMILES>  (484) 
N#CN/C(=N\CCCCCCOc1ccc(Cl)cc1)Nc1ccncc1

>  <InChi Key>  (484) 
BOIPLTNGIAPDBY-UHFFFAOYSA-N

$$$$
CHEMBL273481
     RDKit          2D

  8  8  0  0  0  0  0  0  0  0999 V2000
    3.5260   -1.2990    0.0000 N   0  0  0  0  0  0  0  0  0  0  0  0
    2.7760    0.0000    0.0000 C   0  0  0  0  0  0  0  0  0  0  0  0
    1.2760    0.0000    0.0000 C   0  0  0  0  0  0  0  0  0  0  0  0
    0.3943    1.2135    0.0000 C   0  0  0  0  0  0  0  0  0  0  0  0
   -1.0323    0.7500    0.0000 C   0  0  0  0  0  0  0  0  0  0  0  0
   -2.2458    1.6317    0.0000 O   0  0  0  0  0  0  0  0  0  0  0  0
   -1.0323   -0.7500    0.0000 N   0  0  0  0  0  0  0  0  0  0  0  0
    0.3943   -1.2135    0.0000 O   0  0  0  0  0  0  0  0  0  0  0  0
  1  2  1  0
  2  3  1  0
  3  4  2  0
  4  5  1  0
  5  6  2  0
  5  7  1  0
  7  8  1  0
  8  3  1  0
M  END
>  <Synonyms>  (485) 
MUSCIMOL|NSC-333569

>  <Research Codes>  (485) 
NSC-333569

>  <Phase>  (485) 
1

>  <Applicants>  (485) 
nan

>  <USAN Stem>  (485) 
nan

>  <USAN Year>  (485) 
nan

>  <USAN Stem Definition>  (485) 
nan

>  <USAN Stem Substem>  (485) 
nan

>  <First Approval>  (485) 
nan

>  <ATC Codes>  (485) 
nan

>  <Level 4 ATC Codes>  (485) 
nan

>  <Level 3 ATC Codes>  (485) 
nan

>  <Level 2 ATC Codes>  (485) 
nan

>  <Level 1 ATC Codes>  (485) 
nan

>  <Indication Class>  (485) 
nan

>  <Patent>  (485) 
nan

>  <Drug Type>  (485) 
1:Synthetic Small Molecule

>  <Passes Rule of Five>  (485) 
True

>  <First In Class>  (485) 
False

>  <Chirality>  (485) 
Achiral Molecule

>  <Prodrug>  (485) 
False

>  <Oral>  (485) 
False

>  <Parenteral>  (485) 
False

>  <Topical>  (485) 
False

>  <Black Box>  (485) 
False

>  <Availability Type>  (485) 
Unknown

>  <Withdrawn Year>  (485) 
nan

>  <Withdrawn Reason>  (485) 
nan

>  <Withdrawn Country>  (485) 
nan

>  <Withdrawn Class>  (485) 
nan

>  <SMILES>  (485) 
NCc1cc(O)no1

>  <InChi Key>  (485) 
ZJQHPWUVQPJPQT-UHFFFAOYSA-N

$$$$
CHEMBL12208
     RDKit          2D

 13 14  0  0  0  0  0  0  0  0999 V2000
   -3.0000   -2.5981    0.0000 C   0  0  0  0  0  0  0  0  0  0  0  0
   -1.5000   -2.5981    0.0000 C   0  0  0  0  0  0  0  0  0  0  0  0
   -0.7500   -3.8971    0.0000 C   0  0  0  0  0  0  0  0  0  0  0  0
    0.7500   -3.8971    0.0000 C   0  0  0  0  0  0  0  0  0  0  0  0
    1.5000   -5.1962    0.0000 O   0  0  0  0  0  0  0  0  0  0  0  0
    1.5000   -2.5981    0.0000 O   0  0  0  0  0  0  0  0  0  0  0  0
    0.7500   -1.2990    0.0000 C   0  0  0  0  0  0  0  0  0  0  0  0
    1.5000    0.0000    0.0000 C   0  0  0  0  0  0  0  0  0  0  0  0
    0.7500    1.2990    0.0000 C   0  0  0  0  0  0  0  0  0  0  0  0
    1.5000    2.5981    0.0000 O   0  0  0  0  0  0  0  0  0  0  0  0
   -0.7500    1.2990    0.0000 C   0  0  0  0  0  0  0  0  0  0  0  0
   -1.5000    0.0000    0.0000 C   0  0  0  0  0  0  0  0  0  0  0  0
   -0.7500   -1.2990    0.0000 C   0  0  0  0  0  0  0  0  0  0  0  0
  1  2  1  0
  2  3  2  0
  3  4  1  0
  4  5  2  0
  4  6  1  0
  6  7  1  0
  7  8  2  0
  8  9  1  0
  9 10  1  0
  9 11  2  0
 11 12  1  0
 12 13  2  0
 13  2  1  0
 13  7  1  0
M  END
>  <Synonyms>  (486) 
CANTABILINE|HYMECROMONE|LM-94|NSC-19026|NSC-9408

>  <Research Codes>  (486) 
LM-94|NSC-19026|NSC-9408

>  <Phase>  (486) 
1

>  <Applicants>  (486) 
nan

>  <USAN Stem>  (486) 
nan

>  <USAN Year>  (486) 
1978.0

>  <USAN Stem Definition>  (486) 
nan

>  <USAN Stem Substem>  (486) 
nan

>  <First Approval>  (486) 
nan

>  <ATC Codes>  (486) 
A05AX02

>  <Level 4 ATC Codes>  (486) 
A05AX - Other drugs for bile therapy

>  <Level 3 ATC Codes>  (486) 
A05A - BILE THERAPY

>  <Level 2 ATC Codes>  (486) 
A05 - BILE AND LIVER THERAPY

>  <Level 1 ATC Codes>  (486) 
A - ALIMENTARY TRACT AND METABOLISM

>  <Indication Class>  (486) 
Choleretic

>  <Patent>  (486) 
nan

>  <Drug Type>  (486) 
1:Synthetic Small Molecule

>  <Passes Rule of Five>  (486) 
True

>  <First In Class>  (486) 
False

>  <Chirality>  (486) 
Achiral Molecule

>  <Prodrug>  (486) 
False

>  <Oral>  (486) 
False

>  <Parenteral>  (486) 
False

>  <Topical>  (486) 
False

>  <Black Box>  (486) 
False

>  <Availability Type>  (486) 
Unknown

>  <Withdrawn Year>  (486) 
nan

>  <Withdrawn Reason>  (486) 
nan

>  <Withdrawn Country>  (486) 
nan

>  <Withdrawn Class>  (486) 
nan

>  <SMILES>  (486) 
Cc1cc(=O)oc2cc(O)ccc12

>  <InChi Key>  (486) 
HSHNITRMYYLLCV-UHFFFAOYSA-N

$$$$
CHEMBL49120
     RDKit          2D

 35 38  0  0  0  0  0  0  0  0999 V2000
   -7.5000  -10.3923    0.0000 C   0  0  0  0  0  0  0  0  0  0  0  0
   -6.0000  -10.3923    0.0000 C   0  0  0  0  0  0  0  0  0  0  0  0
   -5.2500   -9.0933    0.0000 N   0  0  0  0  0  0  0  0  0  0  0  0
   -6.0000   -7.7942    0.0000 C   0  0  0  0  0  0  0  0  0  0  0  0
   -7.5000   -7.7942    0.0000 C   0  0  0  0  0  0  0  0  0  0  0  0
   -3.7500   -9.0933    0.0000 C   0  0  0  0  0  0  0  0  0  0  0  0
   -3.0000   -7.7942    0.0000 C   0  0  0  0  0  0  0  0  0  0  0  0
   -1.5000   -7.7942    0.0000 O   0  0  0  0  0  0  0  0  0  0  0  0
   -0.7500   -6.4952    0.0000 C   0  0  0  0  0  0  0  0  0  0  0  0
   -1.5000   -5.1962    0.0000 C   0  0  0  0  0  0  0  0  0  0  0  0
   -0.7500   -3.8971    0.0000 C   0  0  0  0  0  0  0  0  0  0  0  0
    0.7500   -3.8971    0.0000 C   0  0  0  0  0  0  0  0  0  0  0  0
    1.5000   -2.5981    0.0000 N   0  0  0  0  0  0  0  0  0  0  0  0
    0.7500   -1.2990    0.0000 C   0  0  0  0  0  0  0  0  0  0  0  0
    1.5000    0.0000    0.0000 N   0  0  0  0  0  0  0  0  0  0  0  0
    0.7500    1.2990    0.0000 C   0  0  0  0  0  0  0  0  0  0  0  0
   -0.7500    1.2990    0.0000 C   0  0  0  0  0  0  0  0  0  0  0  0
   -1.5000    2.5981    0.0000 C   0  0  0  0  0  0  0  0  0  0  0  0
   -3.0000    2.5981    0.0000 C   0  0  0  0  0  0  0  0  0  0  0  0
   -3.7500    3.8971    0.0000 C   0  0  0  0  0  0  0  0  0  0  0  0
   -3.0000    5.1962    0.0000 C   0  0  0  0  0  0  0  0  0  0  0  0
   -1.5000    5.1962    0.0000 Cl  0  0  0  0  0  0  0  0  0  0  0  0
   -3.7500    6.4952    0.0000 C   0  0  0  0  0  0  0  0  0  0  0  0
   -5.2500    6.4952    0.0000 C   0  0  0  0  0  0  0  0  0  0  0  0
   -6.0000    5.1962    0.0000 C   0  0  0  0  0  0  0  0  0  0  0  0
   -5.2500    3.8971    0.0000 C   0  0  0  0  0  0  0  0  0  0  0  0
   -6.0000    2.5981    0.0000 Cl  0  0  0  0  0  0  0  0  0  0  0  0
   -3.7500    1.2990    0.0000 C   0  0  0  0  0  0  0  0  0  0  0  0
   -5.2500    1.2990    0.0000 O   0  0  0  0  0  0  0  0  0  0  0  0
   -3.0000    0.0000    0.0000 N   0  0  0  0  0  0  0  0  0  0  0  0
   -3.7500   -1.2990    0.0000 C   0  0  0  0  0  0  0  0  0  0  0  0
   -1.5000    0.0000    0.0000 C   0  0  0  0  0  0  0  0  0  0  0  0
   -0.7500   -1.2990    0.0000 N   0  0  0  0  0  0  0  0  0  0  0  0
    1.5000   -5.1962    0.0000 C   0  0  0  0  0  0  0  0  0  0  0  0
    0.7500   -6.4952    0.0000 C   0  0  0  0  0  0  0  0  0  0  0  0
  1  2  1  0
  2  3  1  0
  3  4  1  0
  4  5  1  0
  3  6  1  0
  6  7  1  0
  7  8  1  0
  8  9  1  0
  9 10  2  0
 10 11  1  0
 11 12  2  0
 12 13  1  0
 13 14  2  3
 14 15  1  0
 15 16  1  0
 16 17  2  0
 17 18  1  0
 18 19  2  0
 19 20  1  0
 20 21  2  0
 21 22  1  0
 21 23  1  0
 23 24  2  0
 24 25  1  0
 25 26  2  0
 26 27  1  0
 19 28  1  0
 28 29  2  0
 28 30  1  0
 30 31  1  0
 30 32  1  0
 32 33  2  0
 12 34  1  0
 34 35  2  0
 35  9  1  0
 33 14  1  0
 32 17  1  0
 26 20  1  0
M  END
>  <Synonyms>  (487) 
PD-0166285|TCMDC-140940

>  <Research Codes>  (487) 
PD-0166285|TCMDC-140940

>  <Phase>  (487) 
1

>  <Applicants>  (487) 
nan

>  <USAN Stem>  (487) 
nan

>  <USAN Year>  (487) 
nan

>  <USAN Stem Definition>  (487) 
nan

>  <USAN Stem Substem>  (487) 
nan

>  <First Approval>  (487) 
nan

>  <ATC Codes>  (487) 
nan

>  <Level 4 ATC Codes>  (487) 
nan

>  <Level 3 ATC Codes>  (487) 
nan

>  <Level 2 ATC Codes>  (487) 
nan

>  <Level 1 ATC Codes>  (487) 
nan

>  <Indication Class>  (487) 
nan

>  <Patent>  (487) 
nan

>  <Drug Type>  (487) 
1:Synthetic Small Molecule

>  <Passes Rule of Five>  (487) 
False

>  <First In Class>  (487) 
False

>  <Chirality>  (487) 
Achiral Molecule

>  <Prodrug>  (487) 
False

>  <Oral>  (487) 
False

>  <Parenteral>  (487) 
False

>  <Topical>  (487) 
False

>  <Black Box>  (487) 
False

>  <Availability Type>  (487) 
Unknown

>  <Withdrawn Year>  (487) 
nan

>  <Withdrawn Reason>  (487) 
nan

>  <Withdrawn Country>  (487) 
nan

>  <Withdrawn Class>  (487) 
nan

>  <SMILES>  (487) 
CCN(CC)CCOc1ccc(Nc2ncc3cc(-c4c(Cl)cccc4Cl)c(=O)n(C)c3n2)cc1

>  <InChi Key>  (487) 
IFPPYSWJNWHOLQ-UHFFFAOYSA-N

$$$$
CHEMBL488436
     RDKit          2D

 26 28  0  0  0  0  0  0  0  0999 V2000
    1.8478   -6.4639    0.0000 C   0  0  0  0  0  0  0  0  0  0  0  0
    2.0046   -4.9721    0.0000 C   0  0  0  0  0  0  0  0  0  0  0  0
    3.3037   -4.2221    0.0000 N   0  0  0  0  0  0  0  0  0  0  0  0
    2.9918   -2.7549    0.0000 C   0  0  0  0  0  0  0  0  0  0  0  0
    1.5000   -2.5981    0.0000 C   0  0  0  0  0  0  0  0  0  0  0  0
    0.7500   -1.2990    0.0000 C   0  0  0  0  0  0  0  0  0  0  0  0
    1.5000    0.0000    0.0000 C   0  0  0  0  0  0  0  0  0  0  0  0
    0.7500    1.2990    0.0000 C   0  0  0  0  0  0  0  0  0  0  0  0
   -0.7500    1.2990    0.0000 N   0  0  0  0  0  0  0  0  0  0  0  0
   -1.5000    0.0000    0.0000 C   0  0  0  0  0  0  0  0  0  0  0  0
   -3.0000    0.0000    0.0000 N   0  0  0  0  0  0  0  0  0  0  0  0
   -3.7500    1.2990    0.0000 C   0  0  0  0  0  0  0  0  0  0  0  0
   -3.0000    2.5981    0.0000 C   0  0  0  0  0  0  0  0  0  0  0  0
   -3.7500    3.8971    0.0000 C   0  0  0  0  0  0  0  0  0  0  0  0
   -5.2500    3.8971    0.0000 C   0  0  0  0  0  0  0  0  0  0  0  0
   -6.0000    5.1962    0.0000 S   0  0  0  0  0  0  0  0  0  0  0  0
   -6.7500    6.4952    0.0000 C   0  0  0  0  0  0  0  0  0  0  0  0
   -7.2990    4.4462    0.0000 O   0  0  0  0  0  0  0  0  0  0  0  0
   -4.7010    5.9462    0.0000 O   0  0  0  0  0  0  0  0  0  0  0  0
   -6.0000    2.5981    0.0000 C   0  0  0  0  0  0  0  0  0  0  0  0
   -5.2500    1.2990    0.0000 C   0  0  0  0  0  0  0  0  0  0  0  0
   -0.7500   -1.2990    0.0000 N   0  0  0  0  0  0  0  0  0  0  0  0
    0.8899   -3.9684    0.0000 N   0  0  0  0  0  0  0  0  0  0  0  0
   -0.5773   -4.2803    0.0000 C   0  0  0  0  0  0  0  0  0  0  0  0
   -1.0409   -5.7068    0.0000 C   0  0  0  0  0  0  0  0  0  0  0  0
   -1.5810   -3.1655    0.0000 C   0  0  0  0  0  0  0  0  0  0  0  0
  1  2  1  0
  2  3  2  0
  3  4  1  0
  4  5  2  0
  5  6  1  0
  6  7  1  0
  7  8  2  0
  8  9  1  0
  9 10  1  0
 10 11  2  3
 11 12  1  0
 12 13  2  0
 13 14  1  0
 14 15  2  0
 15 16  1  0
 16 17  1  0
 16 18  2  0
 16 19  2  0
 15 20  1  0
 20 21  2  0
 10 22  1  0
  5 23  1  0
 23 24  1  0
 24 25  1  0
 24 26  1  0
 23  2  1  0
 22  6  2  0
 21 12  1  0
M  END
>  <Synonyms>  (488) 
AZD-5438

>  <Research Codes>  (488) 
AZD-5438

>  <Phase>  (488) 
1

>  <Applicants>  (488) 
nan

>  <USAN Stem>  (488) 
nan

>  <USAN Year>  (488) 
nan

>  <USAN Stem Definition>  (488) 
nan

>  <USAN Stem Substem>  (488) 
nan

>  <First Approval>  (488) 
nan

>  <ATC Codes>  (488) 
nan

>  <Level 4 ATC Codes>  (488) 
nan

>  <Level 3 ATC Codes>  (488) 
nan

>  <Level 2 ATC Codes>  (488) 
nan

>  <Level 1 ATC Codes>  (488) 
nan

>  <Indication Class>  (488) 
nan

>  <Patent>  (488) 
nan

>  <Drug Type>  (488) 
1:Synthetic Small Molecule

>  <Passes Rule of Five>  (488) 
True

>  <First In Class>  (488) 
False

>  <Chirality>  (488) 
Achiral Molecule

>  <Prodrug>  (488) 
False

>  <Oral>  (488) 
False

>  <Parenteral>  (488) 
False

>  <Topical>  (488) 
False

>  <Black Box>  (488) 
False

>  <Availability Type>  (488) 
Unknown

>  <Withdrawn Year>  (488) 
nan

>  <Withdrawn Reason>  (488) 
nan

>  <Withdrawn Country>  (488) 
nan

>  <Withdrawn Class>  (488) 
nan

>  <SMILES>  (488) 
Cc1ncc(-c2ccnc(Nc3ccc(S(C)(=O)=O)cc3)n2)n1C(C)C

>  <InChi Key>  (488) 
WJRRGYBTGDJBFX-UHFFFAOYSA-N

$$$$
CHEMBL585902
     RDKit          2D

 35 39  0  0  0  0  0  0  0  0999 V2000
   -0.7500   -9.0933    0.0000 C   0  0  0  0  0  0  0  0  0  0  0  0
   -1.5000   -7.7942    0.0000 N   0  0  0  0  0  0  0  0  0  0  0  0
   -3.0000   -7.7942    0.0000 C   0  0  0  0  0  0  0  0  0  0  0  0
   -3.7500   -9.0933    0.0000 N   0  0  0  0  0  0  0  0  0  0  0  0
   -5.2500   -9.0933    0.0000 C   0  0  0  0  0  0  0  0  0  0  0  0
   -6.0000  -10.3923    0.0000 C   0  0  0  0  0  0  0  0  0  0  0  0
   -5.2500  -11.6913    0.0000 N   0  0  0  0  0  0  0  0  0  0  0  0
   -7.5000  -10.3923    0.0000 C   0  0  0  0  0  0  0  0  0  0  0  0
   -8.2500  -11.6913    0.0000 C   0  0  0  0  0  0  0  0  0  0  0  0
   -9.7500  -11.6913    0.0000 C   0  0  0  0  0  0  0  0  0  0  0  0
  -10.5000  -12.9904    0.0000 C   0  0  0  0  0  0  0  0  0  0  0  0
   -9.7500  -14.2894    0.0000 C   0  0  0  0  0  0  0  0  0  0  0  0
   -8.2500  -14.2894    0.0000 C   0  0  0  0  0  0  0  0  0  0  0  0
   -7.5000  -12.9904    0.0000 C   0  0  0  0  0  0  0  0  0  0  0  0
   -3.7500   -6.4952    0.0000 N   0  0  0  0  0  0  0  0  0  0  0  0
   -3.0000   -5.1962    0.0000 C   0  0  0  0  0  0  0  0  0  0  0  0
   -3.7500   -3.8971    0.0000 C   0  0  0  0  0  0  0  0  0  0  0  0
   -3.0000   -2.5981    0.0000 C   0  0  0  0  0  0  0  0  0  0  0  0
   -3.7500   -1.2990    0.0000 C   0  0  0  0  0  0  0  0  0  0  0  0
   -5.2500   -1.2990    0.0000 N   0  0  0  0  0  0  0  0  0  0  0  0
   -6.0000   -2.5981    0.0000 C   0  0  0  0  0  0  0  0  0  0  0  0
   -5.2500   -3.8971    0.0000 C   0  0  0  0  0  0  0  0  0  0  0  0
   -1.5000   -5.1962    0.0000 C   0  0  0  0  0  0  0  0  0  0  0  0
   -0.7500   -3.8971    0.0000 C   0  0  0  0  0  0  0  0  0  0  0  0
    0.7500   -3.8971    0.0000 C   0  0  0  0  0  0  0  0  0  0  0  0
    1.5000   -2.5981    0.0000 C   0  0  0  0  0  0  0  0  0  0  0  0
    0.7500   -1.2990    0.0000 C   0  0  0  0  0  0  0  0  0  0  0  0
    1.5000    0.0000    0.0000 C   0  0  0  0  0  0  0  0  0  0  0  0
    0.7500    1.2990    0.0000 C   0  0  0  0  0  0  0  0  0  0  0  0
   -0.7500    1.2990    0.0000 C   0  0  0  0  0  0  0  0  0  0  0  0
   -1.5000    0.0000    0.0000 C   0  0  0  0  0  0  0  0  0  0  0  0
   -0.7500   -1.2990    0.0000 C   0  0  0  0  0  0  0  0  0  0  0  0
   -1.5000   -2.5981    0.0000 C   0  0  0  0  0  0  0  0  0  0  0  0
   -0.7500   -6.4952    0.0000 C   0  0  0  0  0  0  0  0  0  0  0  0
    0.7500   -6.4952    0.0000 O   0  0  0  0  0  0  0  0  0  0  0  0
  1  2  1  0
  2  3  1  0
  3  4  2  3
  4  5  1  0
  5  6  1  0
  6  7  1  1
  6  8  1  0
  8  9  1  0
  9 10  2  0
 10 11  1  0
 11 12  2  0
 12 13  1  0
 13 14  2  0
  3 15  1  0
 15 16  1  0
 16 17  1  0
 17 18  2  0
 18 19  1  0
 19 20  2  0
 20 21  1  0
 21 22  2  0
 16 23  2  0
 23 24  1  0
 24 25  2  0
 25 26  1  0
 26 27  2  0
 27 28  1  0
 28 29  2  0
 29 30  1  0
 30 31  2  0
 31 32  1  0
 32 33  2  0
 23 34  1  0
 34 35  2  0
 34  2  1  0
 14  9  1  0
 22 17  1  0
 33 24  1  0
 32 27  1  0
M  END
>  <Synonyms>  (489) 
AMG-548

>  <Research Codes>  (489) 
AMG-548

>  <Phase>  (489) 
1

>  <Applicants>  (489) 
nan

>  <USAN Stem>  (489) 
nan

>  <USAN Year>  (489) 
nan

>  <USAN Stem Definition>  (489) 
nan

>  <USAN Stem Substem>  (489) 
nan

>  <First Approval>  (489) 
nan

>  <ATC Codes>  (489) 
nan

>  <Level 4 ATC Codes>  (489) 
nan

>  <Level 3 ATC Codes>  (489) 
nan

>  <Level 2 ATC Codes>  (489) 
nan

>  <Level 1 ATC Codes>  (489) 
nan

>  <Indication Class>  (489) 
nan

>  <Patent>  (489) 
nan

>  <Drug Type>  (489) 
1:Synthetic Small Molecule

>  <Passes Rule of Five>  (489) 
True

>  <First In Class>  (489) 
False

>  <Chirality>  (489) 
Single Stereoisomer

>  <Prodrug>  (489) 
False

>  <Oral>  (489) 
False

>  <Parenteral>  (489) 
False

>  <Topical>  (489) 
False

>  <Black Box>  (489) 
False

>  <Availability Type>  (489) 
Unknown

>  <Withdrawn Year>  (489) 
nan

>  <Withdrawn Reason>  (489) 
nan

>  <Withdrawn Country>  (489) 
nan

>  <Withdrawn Class>  (489) 
nan

>  <SMILES>  (489) 
Cn1c(NC[C@@H](N)Cc2ccccc2)nc(-c2ccncc2)c(-c2ccc3ccccc3c2)c1=O

>  <InChi Key>  (489) 
RQVKVJIRFKVPBF-VWLOTQADSA-N

$$$$
CHEMBL294029
     RDKit          2D

 31 34  0  0  0  0  0  0  0  0999 V2000
    0.6513   -6.6748    0.0000 C   0  0  0  0  0  0  0  0  0  0  0  0
    1.8478   -6.4639    0.0000 C   0  0  0  0  0  0  0  0  0  0  0  0
    2.0046   -4.9721    0.0000 C   0  0  0  0  0  0  0  0  0  0  0  0
    0.8899   -3.9684    0.0000 N   0  0  0  0  0  0  0  0  0  0  0  0
    1.5000   -2.5981    0.0000 C   0  0  0  0  0  0  0  0  0  0  0  0
    0.7500   -1.2990    0.0000 C   0  0  0  0  0  0  0  0  0  0  0  0
    1.5000    0.0000    0.0000 C   0  0  0  0  0  0  0  0  0  0  0  0
    0.7500    1.2990    0.0000 C   0  0  0  0  0  0  0  0  0  0  0  0
   -0.7500    1.2990    0.0000 C   0  0  0  0  0  0  0  0  0  0  0  0
   -1.5000    2.5981    0.0000 C   0  0  0  0  0  0  0  0  0  0  0  0
   -2.2500    3.8971    0.0000 N   0  0  0  0  0  0  0  0  0  0  0  0
   -1.5000    0.0000    0.0000 C   0  0  0  0  0  0  0  0  0  0  0  0
   -0.7500   -1.2990    0.0000 C   0  0  0  0  0  0  0  0  0  0  0  0
    2.9918   -2.7549    0.0000 C   0  0  0  0  0  0  0  0  0  0  0  0
    3.3037   -4.2221    0.0000 S   0  0  0  0  0  0  0  0  0  0  0  0
    3.0613   -7.3456    0.0000 C   0  0  0  0  0  0  0  0  0  0  0  0
    3.9430   -6.1320    0.0000 O   0  0  0  0  0  0  0  0  0  0  0  0
    2.1797   -8.5591    0.0000 C   0  0  0  0  0  0  0  0  0  0  0  0
    0.6879   -8.4023    0.0000 N   0  0  0  0  0  0  0  0  0  0  0  0
   -0.3158   -9.5170    0.0000 C   0  0  0  0  0  0  0  0  0  0  0  0
   -1.6861   -8.9069    0.0000 N   0  0  0  0  0  0  0  0  0  0  0  0
   -1.5293   -7.4151    0.0000 C   0  0  0  0  0  0  0  0  0  0  0  0
   -0.0621   -7.1032    0.0000 N   0  0  0  0  0  0  0  0  0  0  0  0
    4.2749   -8.2272    0.0000 C   0  0  0  0  0  0  0  0  0  0  0  0
    4.1181   -9.7190    0.0000 C   0  0  0  0  0  0  0  0  0  0  0  0
    5.3316  -10.6007    0.0000 C   0  0  0  0  0  0  0  0  0  0  0  0
    6.7019   -9.9906    0.0000 C   0  0  0  0  0  0  0  0  0  0  0  0
    7.9154  -10.8723    0.0000 F   0  0  0  0  0  0  0  0  0  0  0  0
    6.8587   -8.4988    0.0000 C   0  0  0  0  0  0  0  0  0  0  0  0
    5.6452   -7.6171    0.0000 C   0  0  0  0  0  0  0  0  0  0  0  0
    5.8020   -6.1253    0.0000 F   0  0  0  0  0  0  0  0  0  0  0  0
  1  2  1  0
  2  3  1  0
  3  4  2  0
  4  5  1  0
  5  6  1  0
  6  7  2  0
  7  8  1  0
  8  9  2  0
  9 10  1  0
 10 11  3  0
  9 12  1  0
 12 13  2  0
  5 14  2  0
 14 15  1  0
  2 16  1  0
 16 17  1  6
 16 18  1  0
 18 19  1  0
 19 20  1  0
 20 21  2  0
 21 22  1  0
 22 23  2  0
 16 24  1  0
 24 25  2  0
 25 26  1  0
 26 27  2  0
 27 28  1  0
 27 29  1  0
 29 30  2  0
 30 31  1  0
 15  3  1  0
 23 19  1  0
 30 24  1  0
 13  6  1  0
M  END
>  <Synonyms>  (490) 
BMS-207147|ER-30346|RAVUCONAZOLE

>  <Research Codes>  (490) 
BMS-207147|ER-30346

>  <Phase>  (490) 
1

>  <Applicants>  (490) 
nan

>  <USAN Stem>  (490) 
'-conazole'

>  <USAN Year>  (490) 
nan

>  <USAN Stem Definition>  (490) 
systemic antifungals (miconazole type)

>  <USAN Stem Substem>  (490) 
'-conazole(-conazole)'

>  <First Approval>  (490) 
nan

>  <ATC Codes>  (490) 
nan

>  <Level 4 ATC Codes>  (490) 
nan

>  <Level 3 ATC Codes>  (490) 
nan

>  <Level 2 ATC Codes>  (490) 
nan

>  <Level 1 ATC Codes>  (490) 
nan

>  <Indication Class>  (490) 
nan

>  <Patent>  (490) 
nan

>  <Drug Type>  (490) 
1:Synthetic Small Molecule

>  <Passes Rule of Five>  (490) 
True

>  <First In Class>  (490) 
False

>  <Chirality>  (490) 
Single Stereoisomer

>  <Prodrug>  (490) 
False

>  <Oral>  (490) 
False

>  <Parenteral>  (490) 
False

>  <Topical>  (490) 
False

>  <Black Box>  (490) 
False

>  <Availability Type>  (490) 
Unknown

>  <Withdrawn Year>  (490) 
nan

>  <Withdrawn Reason>  (490) 
nan

>  <Withdrawn Country>  (490) 
nan

>  <Withdrawn Class>  (490) 
nan

>  <SMILES>  (490) 
C[C@@H](c1nc(-c2ccc(C#N)cc2)cs1)[C@](O)(Cn1cncn1)c1ccc(F)cc1F

>  <InChi Key>  (490) 
OPAHEYNNJWPQPX-PSRIUPCASA-N

$$$$
CHEMBL1258517
     RDKit          2D

 36 41  0  0  0  0  0  0  0  0999 V2000
   -9.7500   -1.2990    0.0000 O   0  0  0  0  0  0  0  0  0  0  0  0
  -10.5000   -2.5981    0.0000 C   0  0  0  0  0  0  0  0  0  0  0  0
  -12.0000   -2.5981    0.0000 N   0  0  0  0  0  0  0  0  0  0  0  0
  -12.7500   -1.2990    0.0000 C   0  0  0  0  0  0  0  0  0  0  0  0
  -12.0000    0.0000    0.0000 C   0  0  0  0  0  0  0  0  0  0  0  0
  -12.7500    1.2990    0.0000 C   0  0  0  0  0  0  0  0  0  0  0  0
  -14.2500    1.2990    0.0000 N   0  0  0  0  0  0  0  0  0  0  0  0
  -15.0000    0.0000    0.0000 C   0  0  0  0  0  0  0  0  0  0  0  0
  -14.2500   -1.2990    0.0000 C   0  0  0  0  0  0  0  0  0  0  0  0
   -9.7500   -3.8971    0.0000 N   0  0  0  0  0  0  0  0  0  0  0  0
   -8.2500   -3.8971    0.0000 C   0  0  0  0  0  0  0  0  0  0  0  0
   -7.5000   -5.1962    0.0000 C   0  0  0  0  0  0  0  0  0  0  0  0
   -6.0000   -5.1962    0.0000 C   0  0  0  0  0  0  0  0  0  0  0  0
   -5.2500   -3.8971    0.0000 C   0  0  0  0  0  0  0  0  0  0  0  0
   -3.7500   -3.8971    0.0000 C   0  0  0  0  0  0  0  0  0  0  0  0
   -3.0000   -5.1962    0.0000 N   0  0  0  0  0  0  0  0  0  0  0  0
   -1.5000   -5.1962    0.0000 C   0  0  0  0  0  0  0  0  0  0  0  0
   -0.7500   -6.4952    0.0000 N   0  0  0  0  0  0  0  0  0  0  0  0
   -1.5000   -7.7942    0.0000 C   0  0  0  0  0  0  0  0  0  0  0  0
   -0.7500   -9.0933    0.0000 C   0  0  0  0  0  0  0  0  0  0  0  0
    0.7500   -9.0933    0.0000 O   0  0  0  0  0  0  0  0  0  0  0  0
    1.5000   -7.7942    0.0000 C   0  0  0  0  0  0  0  0  0  0  0  0
    0.7500   -6.4952    0.0000 C   0  0  0  0  0  0  0  0  0  0  0  0
   -0.7500   -3.8971    0.0000 N   0  0  0  0  0  0  0  0  0  0  0  0
   -1.5000   -2.5981    0.0000 C   0  0  0  0  0  0  0  0  0  0  0  0
   -0.7500   -1.2990    0.0000 N   0  0  0  0  0  0  0  0  0  0  0  0
   -1.5000    0.0000    0.0000 C   0  0  0  0  0  0  0  0  0  0  0  0
   -1.8119   -1.4672    0.0000 C   0  0  0  0  0  0  0  0  0  0  0  0
   -0.5128   -2.2172    0.0000 C   0  0  0  0  0  0  0  0  0  0  0  0
    0.7500   -1.2990    0.0000 C   0  0  0  0  0  0  0  0  0  0  0  0
    1.5000    0.0000    0.0000 C   0  0  0  0  0  0  0  0  0  0  0  0
    0.7500    1.2990    0.0000 O   0  0  0  0  0  0  0  0  0  0  0  0
   -0.7500    1.2990    0.0000 C   0  0  0  0  0  0  0  0  0  0  0  0
   -3.0000   -2.5981    0.0000 N   0  0  0  0  0  0  0  0  0  0  0  0
   -6.0000   -2.5981    0.0000 C   0  0  0  0  0  0  0  0  0  0  0  0
   -7.5000   -2.5981    0.0000 C   0  0  0  0  0  0  0  0  0  0  0  0
  1  2  2  0
  2  3  1  0
  3  4  2  3
  4  5  1  0
  5  6  2  0
  6  7  1  0
  7  8  1  0
  8  9  2  0
  2 10  1  0
 10 11  1  0
 11 12  2  0
 12 13  1  0
 13 14  2  0
 14 15  1  0
 15 16  2  0
 16 17  1  0
 17 18  1  0
 18 19  1  0
 19 20  1  0
 20 21  1  0
 21 22  1  0
 22 23  1  0
 17 24  2  0
 24 25  1  0
 25 26  1  0
 26 27  1  0
 27 28  1  0
 28 29  1  0
 29 30  1  0
 30 31  1  0
 31 32  1  0
 32 33  1  0
 25 34  2  0
 14 35  1  0
 35 36  2  0
  9  4  1  0
 36 11  1  0
 34 15  1  0
 23 18  1  0
 30 26  1  0
 33 27  1  0
M  END
>  <Synonyms>  (491) 
PKI-179

>  <Research Codes>  (491) 
PKI-179

>  <Phase>  (491) 
1

>  <Applicants>  (491) 
nan

>  <USAN Stem>  (491) 
nan

>  <USAN Year>  (491) 
nan

>  <USAN Stem Definition>  (491) 
nan

>  <USAN Stem Substem>  (491) 
nan

>  <First Approval>  (491) 
nan

>  <ATC Codes>  (491) 
nan

>  <Level 4 ATC Codes>  (491) 
nan

>  <Level 3 ATC Codes>  (491) 
nan

>  <Level 2 ATC Codes>  (491) 
nan

>  <Level 1 ATC Codes>  (491) 
nan

>  <Indication Class>  (491) 
nan

>  <Patent>  (491) 
nan

>  <Drug Type>  (491) 
1:Synthetic Small Molecule

>  <Passes Rule of Five>  (491) 
True

>  <First In Class>  (491) 
False

>  <Chirality>  (491) 
Racemic Mixture

>  <Prodrug>  (491) 
False

>  <Oral>  (491) 
False

>  <Parenteral>  (491) 
False

>  <Topical>  (491) 
False

>  <Black Box>  (491) 
False

>  <Availability Type>  (491) 
Unknown

>  <Withdrawn Year>  (491) 
nan

>  <Withdrawn Reason>  (491) 
nan

>  <Withdrawn Country>  (491) 
nan

>  <Withdrawn Class>  (491) 
nan

>  <SMILES>  (491) 
O=C(Nc1ccncc1)Nc1ccc(-c2nc(N3CCOCC3)nc(N3C4CCC3COC4)n2)cc1

>  <InChi Key>  (491) 
WXUUCRLKXQMWRY-UHFFFAOYSA-N

$$$$
CHEMBL70971
     RDKit          2D

 14 15  0  0  0  0  0  0  0  0999 V2000
   -3.8971   -5.8573    0.0000 C   0  0  0  0  0  0  0  0  0  0  0  0
   -2.5981   -5.1073    0.0000 O   0  0  0  0  0  0  0  0  0  0  0  0
   -1.2990   -5.8573    0.0000 C   0  0  0  0  0  0  0  0  0  0  0  0
   -1.2990   -7.3573    0.0000 O   0  0  0  0  0  0  0  0  0  0  0  0
   -0.0000   -5.1073    0.0000 N   0  0  0  0  0  0  0  0  0  0  0  0
   -0.0000   -3.6073    0.0000 C   0  0  0  0  0  0  0  0  0  0  0  0
    1.2135   -2.7256    0.0000 N   0  0  0  0  0  0  0  0  0  0  0  0
    0.7500   -1.2990    0.0000 C   0  0  0  0  0  0  0  0  0  0  0  0
    1.5000    0.0000    0.0000 C   0  0  0  0  0  0  0  0  0  0  0  0
    0.7500    1.2990    0.0000 C   0  0  0  0  0  0  0  0  0  0  0  0
   -0.7500    1.2990    0.0000 C   0  0  0  0  0  0  0  0  0  0  0  0
   -1.5000    0.0000    0.0000 C   0  0  0  0  0  0  0  0  0  0  0  0
   -0.7500   -1.2990    0.0000 C   0  0  0  0  0  0  0  0  0  0  0  0
   -1.2135   -2.7256    0.0000 N   0  0  0  0  0  0  0  0  0  0  0  0
  1  2  1  0
  2  3  1  0
  3  4  2  0
  3  5  1  0
  5  6  2  3
  6  7  1  0
  7  8  1  0
  8  9  2  0
  9 10  1  0
 10 11  2  0
 11 12  1  0
 12 13  2  0
 13 14  1  0
 14  6  1  0
 13  8  1  0
M  END
>  <Synonyms>  (492) 
A 118|BAS-67054F|Bavistin|CARBENDAZIM|EK-578|FB-642|FENBENDAZOLE RELATED COMPOUND A|NSC-109874

>  <Research Codes>  (492) 
A 118|BAS-67054F|EK-578|FB-642|NSC-109874

>  <Phase>  (492) 
1

>  <Applicants>  (492) 
nan

>  <USAN Stem>  (492) 
nan

>  <USAN Year>  (492) 
nan

>  <USAN Stem Definition>  (492) 
nan

>  <USAN Stem Substem>  (492) 
nan

>  <First Approval>  (492) 
nan

>  <ATC Codes>  (492) 
nan

>  <Level 4 ATC Codes>  (492) 
nan

>  <Level 3 ATC Codes>  (492) 
nan

>  <Level 2 ATC Codes>  (492) 
nan

>  <Level 1 ATC Codes>  (492) 
nan

>  <Indication Class>  (492) 
nan

>  <Patent>  (492) 
nan

>  <Drug Type>  (492) 
1:Synthetic Small Molecule

>  <Passes Rule of Five>  (492) 
True

>  <First In Class>  (492) 
False

>  <Chirality>  (492) 
Achiral Molecule

>  <Prodrug>  (492) 
False

>  <Oral>  (492) 
False

>  <Parenteral>  (492) 
False

>  <Topical>  (492) 
False

>  <Black Box>  (492) 
False

>  <Availability Type>  (492) 
Unknown

>  <Withdrawn Year>  (492) 
nan

>  <Withdrawn Reason>  (492) 
nan

>  <Withdrawn Country>  (492) 
nan

>  <Withdrawn Class>  (492) 
nan

>  <SMILES>  (492) 
COC(=O)Nc1nc2ccccc2[nH]1

>  <InChi Key>  (492) 
TWFZGCMQGLPBSX-UHFFFAOYSA-N

$$$$
CHEMBL1645462
     RDKit          2D

 39 44  0  0  0  0  0  0  0  0999 V2000
   -2.6401   -3.1891    0.0000 C   0  0  0  0  0  0  0  0  0  0  0  0
   -1.2135   -2.7256    0.0000 C   0  0  0  0  0  0  0  0  0  0  0  0
   -0.0000   -3.6073    0.0000 C   0  0  0  0  0  0  0  0  0  0  0  0
   -0.0000   -5.1073    0.0000 N   0  0  0  0  0  0  0  0  0  0  0  0
    1.2990   -5.8573    0.0000 C   0  0  0  0  0  0  0  0  0  0  0  0
    2.5981   -5.1073    0.0000 O   0  0  0  0  0  0  0  0  0  0  0  0
    1.2990   -7.3573    0.0000 O   0  0  0  0  0  0  0  0  0  0  0  0
    2.5981   -8.1073    0.0000 C   0  0  0  0  0  0  0  0  0  0  0  0
    2.5981   -9.6073    0.0000 C   0  0  0  0  0  0  0  0  0  0  0  0
    1.2990  -10.3573    0.0000 C   0  0  0  0  0  0  0  0  0  0  0  0
    1.2990  -11.8573    0.0000 O   0  0  0  0  0  0  0  0  0  0  0  0
    2.5981  -12.6073    0.0000 C   0  0  0  0  0  0  0  0  0  0  0  0
    3.8971  -11.8573    0.0000 C   0  0  0  0  0  0  0  0  0  0  0  0
    3.8971  -10.3573    0.0000 N   0  0  0  0  0  0  0  0  0  0  0  0
    1.2135   -2.7256    0.0000 C   0  0  0  0  0  0  0  0  0  0  0  0
    0.7500   -1.2990    0.0000 N   0  0  0  0  0  0  0  0  0  0  0  0
    1.5000    0.0000    0.0000 N   0  0  0  0  0  0  0  0  0  0  0  0
    0.7500    1.2990    0.0000 C   0  0  0  0  0  0  0  0  0  0  0  0
   -0.7500    1.2990    0.0000 N   0  0  0  0  0  0  0  0  0  0  0  0
   -1.5000    0.0000    0.0000 C   0  0  0  0  0  0  0  0  0  0  0  0
   -3.0000    0.0000    0.0000 N   0  0  0  0  0  0  0  0  0  0  0  0
   -3.7500    1.2990    0.0000 C   0  0  0  0  0  0  0  0  0  0  0  0
   -3.0000    2.5981    0.0000 C   0  0  0  0  0  0  0  0  0  0  0  0
   -3.7500    3.8971    0.0000 C   0  0  0  0  0  0  0  0  0  0  0  0
   -5.2500    3.8971    0.0000 C   0  0  0  0  0  0  0  0  0  0  0  0
   -6.0000    2.5981    0.0000 C   0  0  0  0  0  0  0  0  0  0  0  0
   -7.4672    2.9099    0.0000 C   0  0  0  0  0  0  0  0  0  0  0  0
   -7.6240    4.4017    0.0000 N   0  0  0  0  0  0  0  0  0  0  0  0
   -6.2537    5.0118    0.0000 N   0  0  0  0  0  0  0  0  0  0  0  0
   -5.9418    6.4791    0.0000 C   0  0  0  0  0  0  0  0  0  0  0  0
   -7.0565    7.4827    0.0000 C   0  0  0  0  0  0  0  0  0  0  0  0
   -6.7447    8.9500    0.0000 C   0  0  0  0  0  0  0  0  0  0  0  0
   -7.8594    9.9537    0.0000 C   0  0  0  0  0  0  0  0  0  0  0  0
   -9.2860    9.4901    0.0000 C   0  0  0  0  0  0  0  0  0  0  0  0
   -9.5978    8.0229    0.0000 C   0  0  0  0  0  0  0  0  0  0  0  0
  -11.0244    7.5594    0.0000 F   0  0  0  0  0  0  0  0  0  0  0  0
   -8.4831    7.0192    0.0000 C   0  0  0  0  0  0  0  0  0  0  0  0
   -5.2500    1.2990    0.0000 C   0  0  0  0  0  0  0  0  0  0  0  0
   -0.7500   -1.2990    0.0000 C   0  0  0  0  0  0  0  0  0  0  0  0
  1  2  1  0
  2  3  1  0
  3  4  1  0
  4  5  1  0
  5  6  2  0
  5  7  1  0
  7  8  1  0
  9  8  1  1
  9 10  1  0
 10 11  1  0
 11 12  1  0
 12 13  1  0
 13 14  1  0
  3 15  2  0
 15 16  1  0
 16 17  1  0
 17 18  1  0
 18 19  2  0
 19 20  1  0
 20 21  2  3
 21 22  1  0
 22 23  2  0
 23 24  1  0
 24 25  2  0
 25 26  1  0
 26 27  1  0
 27 28  2  0
 28 29  1  0
 29 30  1  0
 30 31  1  0
 31 32  2  0
 32 33  1  0
 33 34  2  0
 34 35  1  0
 35 36  1  0
 35 37  2  0
 26 38  2  0
 20 39  1  0
 39  2  2  0
 14  9  1  0
 39 16  1  0
 38 22  1  0
 29 25  1  0
 37 31  1  0
M  END
>  <Synonyms>  (493) 
AC-480|AC480|BMS 599626|BMS-599626

>  <Research Codes>  (493) 
AC-480|AC480|BMS-599626

>  <Phase>  (493) 
1

>  <Applicants>  (493) 
nan

>  <USAN Stem>  (493) 
nan

>  <USAN Year>  (493) 
nan

>  <USAN Stem Definition>  (493) 
nan

>  <USAN Stem Substem>  (493) 
nan

>  <First Approval>  (493) 
nan

>  <ATC Codes>  (493) 
nan

>  <Level 4 ATC Codes>  (493) 
nan

>  <Level 3 ATC Codes>  (493) 
nan

>  <Level 2 ATC Codes>  (493) 
nan

>  <Level 1 ATC Codes>  (493) 
nan

>  <Indication Class>  (493) 
nan

>  <Patent>  (493) 
nan

>  <Drug Type>  (493) 
1:Synthetic Small Molecule

>  <Passes Rule of Five>  (493) 
False

>  <First In Class>  (493) 
False

>  <Chirality>  (493) 
Single Stereoisomer

>  <Prodrug>  (493) 
False

>  <Oral>  (493) 
False

>  <Parenteral>  (493) 
False

>  <Topical>  (493) 
False

>  <Black Box>  (493) 
False

>  <Availability Type>  (493) 
Unknown

>  <Withdrawn Year>  (493) 
nan

>  <Withdrawn Reason>  (493) 
nan

>  <Withdrawn Country>  (493) 
nan

>  <Withdrawn Class>  (493) 
nan

>  <SMILES>  (493) 
Cc1c(NC(=O)OC[C@@H]2COCCN2)cn2ncnc(Nc3ccc4c(cnn4Cc4cccc(F)c4)c3)c12

>  <InChi Key>  (493) 
LUJZZYWHBDHDQX-QFIPXVFZSA-N

$$$$
CHEMBL1236107
     RDKit          2D

 26 30  0  0  0  0  0  0  0  0999 V2000
   -2.0444  -13.4534    0.0000 C   0  0  0  0  0  0  0  0  0  0  0  0
   -3.1591  -12.4497    0.0000 N   0  0  0  0  0  0  0  0  0  0  0  0
   -3.0023  -10.9579    0.0000 C   0  0  0  0  0  0  0  0  0  0  0  0
   -4.3727  -10.3478    0.0000 C   0  0  0  0  0  0  0  0  0  0  0  0
   -4.6845   -8.8806    0.0000 C   0  0  0  0  0  0  0  0  0  0  0  0
   -6.1111   -8.4171    0.0000 C   0  0  0  0  0  0  0  0  0  0  0  0
   -6.4230   -6.9498    0.0000 C   0  0  0  0  0  0  0  0  0  0  0  0
   -5.3083   -5.9462    0.0000 C   0  0  0  0  0  0  0  0  0  0  0  0
   -5.3083   -4.4462    0.0000 N   0  0  0  0  0  0  0  0  0  0  0  0
   -3.8817   -3.9826    0.0000 N   0  0  0  0  0  0  0  0  0  0  0  0
   -3.0000   -5.1962    0.0000 C   0  0  0  0  0  0  0  0  0  0  0  0
   -1.5000   -5.1962    0.0000 S   0  0  0  0  0  0  0  0  0  0  0  0
   -0.7500   -3.8971    0.0000 C   0  0  0  0  0  0  0  0  0  0  0  0
    0.7500   -3.8971    0.0000 C   0  0  0  0  0  0  0  0  0  0  0  0
    1.5000   -2.5981    0.0000 C   0  0  0  0  0  0  0  0  0  0  0  0
    0.7500   -1.2990    0.0000 C   0  0  0  0  0  0  0  0  0  0  0  0
    1.5000    0.0000    0.0000 N   0  0  0  0  0  0  0  0  0  0  0  0
    0.7500    1.2990    0.0000 C   0  0  0  0  0  0  0  0  0  0  0  0
   -0.7500    1.2990    0.0000 C   0  0  0  0  0  0  0  0  0  0  0  0
   -1.5000    0.0000    0.0000 C   0  0  0  0  0  0  0  0  0  0  0  0
   -0.7500   -1.2990    0.0000 C   0  0  0  0  0  0  0  0  0  0  0  0
   -1.5000   -2.5981    0.0000 C   0  0  0  0  0  0  0  0  0  0  0  0
   -3.8817   -6.4097    0.0000 N   0  0  0  0  0  0  0  0  0  0  0  0
   -3.5698   -7.8769    0.0000 N   0  0  0  0  0  0  0  0  0  0  0  0
   -5.3764  -11.4625    0.0000 C   0  0  0  0  0  0  0  0  0  0  0  0
   -4.6264  -12.7616    0.0000 N   0  0  0  0  0  0  0  0  0  0  0  0
  1  2  1  0
  2  3  1  0
  3  4  2  0
  4  5  1  0
  5  6  1  0
  6  7  2  0
  7  8  1  0
  8  9  2  0
  9 10  1  0
 10 11  2  0
 11 12  1  0
 12 13  1  0
 13 14  2  0
 14 15  1  0
 15 16  2  0
 16 17  1  0
 17 18  2  0
 18 19  1  0
 19 20  2  0
 20 21  1  0
 21 22  2  0
 11 23  1  0
 23 24  1  0
  4 25  1  0
 25 26  2  0
 26  2  1  0
 24  5  2  0
 23  8  1  0
 22 13  1  0
 21 16  1  0
M  END
>  <Synonyms>  (494) 
SGX-523

>  <Research Codes>  (494) 
SGX-523

>  <Phase>  (494) 
1

>  <Applicants>  (494) 
nan

>  <USAN Stem>  (494) 
nan

>  <USAN Year>  (494) 
nan

>  <USAN Stem Definition>  (494) 
nan

>  <USAN Stem Substem>  (494) 
nan

>  <First Approval>  (494) 
nan

>  <ATC Codes>  (494) 
nan

>  <Level 4 ATC Codes>  (494) 
nan

>  <Level 3 ATC Codes>  (494) 
nan

>  <Level 2 ATC Codes>  (494) 
nan

>  <Level 1 ATC Codes>  (494) 
nan

>  <Indication Class>  (494) 
nan

>  <Patent>  (494) 
nan

>  <Drug Type>  (494) 
1:Synthetic Small Molecule

>  <Passes Rule of Five>  (494) 
True

>  <First In Class>  (494) 
False

>  <Chirality>  (494) 
Achiral Molecule

>  <Prodrug>  (494) 
False

>  <Oral>  (494) 
False

>  <Parenteral>  (494) 
False

>  <Topical>  (494) 
False

>  <Black Box>  (494) 
False

>  <Availability Type>  (494) 
Unknown

>  <Withdrawn Year>  (494) 
nan

>  <Withdrawn Reason>  (494) 
nan

>  <Withdrawn Country>  (494) 
nan

>  <Withdrawn Class>  (494) 
nan

>  <SMILES>  (494) 
Cn1cc(-c2ccc3nnc(Sc4ccc5ncccc5c4)n3n2)cn1

>  <InChi Key>  (494) 
BCZUAADEACICHN-UHFFFAOYSA-N

$$$$
CHEMBL19344
     RDKit          2D

 20 22  0  0  0  0  0  0  0  0999 V2000
    7.5000   -2.5981    0.0000 O   0  0  0  0  0  0  0  0  0  0  0  0
    6.0000   -2.5981    0.0000 C   0  0  0  0  0  0  0  0  0  0  0  0
    5.2500   -3.8971    0.0000 C   0  0  0  0  0  0  0  0  0  0  0  0
    3.7500   -3.8971    0.0000 C   0  0  0  0  0  0  0  0  0  0  0  0
    3.0000   -2.5981    0.0000 C   0  0  0  0  0  0  0  0  0  0  0  0
    1.5000   -2.5981    0.0000 C   0  0  0  0  0  0  0  0  0  0  0  0
    0.7500   -1.2990    0.0000 C   0  0  0  0  0  0  0  0  0  0  0  0
    1.5000    0.0000    0.0000 N   0  0  0  0  0  0  0  0  0  0  0  0
    0.7500    1.2990    0.0000 C   0  0  0  0  0  0  0  0  0  0  0  0
   -0.7500    1.2990    0.0000 C   0  0  0  0  0  0  0  0  0  0  0  0
   -1.5000    0.0000    0.0000 C   0  0  0  0  0  0  0  0  0  0  0  0
   -3.0000    0.0000    0.0000 C   0  0  0  0  0  0  0  0  0  0  0  0
   -3.7500   -1.2990    0.0000 C   0  0  0  0  0  0  0  0  0  0  0  0
   -5.2500   -1.2990    0.0000 O   0  0  0  0  0  0  0  0  0  0  0  0
   -3.0000   -2.5981    0.0000 C   0  0  0  0  0  0  0  0  0  0  0  0
   -3.7500   -3.8971    0.0000 O   0  0  0  0  0  0  0  0  0  0  0  0
   -1.5000   -2.5981    0.0000 C   0  0  0  0  0  0  0  0  0  0  0  0
   -0.7500   -1.2990    0.0000 C   0  0  0  0  0  0  0  0  0  0  0  0
    3.7500   -1.2990    0.0000 C   0  0  0  0  0  0  0  0  0  0  0  0
    5.2500   -1.2990    0.0000 C   0  0  0  0  0  0  0  0  0  0  0  0
  1  2  1  0
  2  3  2  0
  3  4  1  0
  4  5  2  0
  5  6  1  0
  6  7  1  0
  7  8  1  0
  8  9  1  0
  9 10  1  0
 10 11  1  0
 11 12  2  0
 12 13  1  0
 13 14  1  0
 13 15  2  0
 15 16  1  0
 15 17  1  0
 17 18  2  0
  5 19  1  0
 19 20  2  0
 20  2  1  0
 18  7  1  0
 18 11  1  0
M  END
>  <Synonyms>  (495) 
HIGENAMINE

>  <Research Codes>  (495) 
nan

>  <Phase>  (495) 
1

>  <Applicants>  (495) 
nan

>  <USAN Stem>  (495) 
nan

>  <USAN Year>  (495) 
nan

>  <USAN Stem Definition>  (495) 
nan

>  <USAN Stem Substem>  (495) 
nan

>  <First Approval>  (495) 
nan

>  <ATC Codes>  (495) 
nan

>  <Level 4 ATC Codes>  (495) 
nan

>  <Level 3 ATC Codes>  (495) 
nan

>  <Level 2 ATC Codes>  (495) 
nan

>  <Level 1 ATC Codes>  (495) 
nan

>  <Indication Class>  (495) 
nan

>  <Patent>  (495) 
nan

>  <Drug Type>  (495) 
1:Synthetic Small Molecule

>  <Passes Rule of Five>  (495) 
True

>  <First In Class>  (495) 
False

>  <Chirality>  (495) 
Racemic Mixture

>  <Prodrug>  (495) 
False

>  <Oral>  (495) 
False

>  <Parenteral>  (495) 
False

>  <Topical>  (495) 
False

>  <Black Box>  (495) 
False

>  <Availability Type>  (495) 
Unknown

>  <Withdrawn Year>  (495) 
nan

>  <Withdrawn Reason>  (495) 
nan

>  <Withdrawn Country>  (495) 
nan

>  <Withdrawn Class>  (495) 
nan

>  <SMILES>  (495) 
Oc1ccc(CC2NCCc3cc(O)c(O)cc32)cc1

>  <InChi Key>  (495) 
WZRCQWQRFZITDX-UHFFFAOYSA-N

$$$$
CHEMBL3644587
     RDKit          2D

 24 28  0  0  0  0  0  0  0  0999 V2000
   -3.7500    1.2990    0.0000 O   0  0  0  0  0  0  0  0  0  0  0  0
   -3.0000    0.0000    0.0000 C   0  0  0  0  0  0  0  0  0  0  0  0
   -3.7500   -1.2990    0.0000 N   0  0  0  0  0  0  0  0  0  0  0  0
   -3.0000   -2.5981    0.0000 N   0  0  0  0  0  0  0  0  0  0  0  0
   -1.5000   -2.5981    0.0000 C   0  0  0  0  0  0  0  0  0  0  0  0
   -0.7500   -3.8971    0.0000 N   0  0  0  0  0  0  0  0  0  0  0  0
    0.7500   -3.8971    0.0000 C   0  0  0  0  0  0  0  0  0  0  0  0
    1.5000   -5.1962    0.0000 C   0  0  0  0  0  0  0  0  0  0  0  0
    0.7500   -6.4952    0.0000 N   0  0  0  0  0  0  0  0  0  0  0  0
   -0.7418   -6.6520    0.0000 C   0  0  0  0  0  0  0  0  0  0  0  0
   -1.0537   -8.1192    0.0000 C   0  0  0  0  0  0  0  0  0  0  0  0
   -2.3527   -8.8692    0.0000 C   0  0  0  0  0  0  0  0  0  0  0  0
   -2.3527  -10.3692    0.0000 C   0  0  0  0  0  0  0  0  0  0  0  0
   -1.0537  -11.1192    0.0000 C   0  0  0  0  0  0  0  0  0  0  0  0
    0.2454  -10.3692    0.0000 C   0  0  0  0  0  0  0  0  0  0  0  0
    0.2454   -8.8692    0.0000 C   0  0  0  0  0  0  0  0  0  0  0  0
    1.3601   -7.8655    0.0000 C   0  0  0  0  0  0  0  0  0  0  0  0
    1.5000   -2.5981    0.0000 N   0  0  0  0  0  0  0  0  0  0  0  0
    0.7500   -1.2990    0.0000 C   0  0  0  0  0  0  0  0  0  0  0  0
    1.5000    0.0000    0.0000 C   0  0  0  0  0  0  0  0  0  0  0  0
    0.7500    1.2990    0.0000 C   0  0  0  0  0  0  0  0  0  0  0  0
   -0.7500    1.2990    0.0000 C   0  0  0  0  0  0  0  0  0  0  0  0
   -1.5000    0.0000    0.0000 C   0  0  0  0  0  0  0  0  0  0  0  0
   -0.7500   -1.2990    0.0000 C   0  0  0  0  0  0  0  0  0  0  0  0
  1  2  2  0
  2  3  1  0
  3  4  1  0
  4  5  1  0
  5  6  1  0
  6  7  2  0
  7  8  1  0
  8  9  1  0
  9 10  1  0
 10 11  1  0
 11 12  2  0
 12 13  1  0
 13 14  2  0
 14 15  1  0
 15 16  2  0
 16 17  1  0
  7 18  1  0
 18 19  2  0
 19 20  1  0
 20 21  2  0
 21 22  1  0
 22 23  2  0
 23 24  1  0
 23  2  1  0
 24  5  2  0
 17  9  1  0
 24 19  1  0
 16 11  1  0
M  END
>  <Synonyms>  (496) 
2X-121|E-7449|E7449

>  <Research Codes>  (496) 
2X-121|E-7449|E7449

>  <Phase>  (496) 
1

>  <Applicants>  (496) 
nan

>  <USAN Stem>  (496) 
nan

>  <USAN Year>  (496) 
nan

>  <USAN Stem Definition>  (496) 
nan

>  <USAN Stem Substem>  (496) 
nan

>  <First Approval>  (496) 
nan

>  <ATC Codes>  (496) 
nan

>  <Level 4 ATC Codes>  (496) 
nan

>  <Level 3 ATC Codes>  (496) 
nan

>  <Level 2 ATC Codes>  (496) 
nan

>  <Level 1 ATC Codes>  (496) 
nan

>  <Indication Class>  (496) 
nan

>  <Patent>  (496) 
nan

>  <Drug Type>  (496) 
1:Synthetic Small Molecule

>  <Passes Rule of Five>  (496) 
True

>  <First In Class>  (496) 
False

>  <Chirality>  (496) 
Achiral Molecule

>  <Prodrug>  (496) 
False

>  <Oral>  (496) 
False

>  <Parenteral>  (496) 
False

>  <Topical>  (496) 
False

>  <Black Box>  (496) 
False

>  <Availability Type>  (496) 
Unknown

>  <Withdrawn Year>  (496) 
nan

>  <Withdrawn Reason>  (496) 
nan

>  <Withdrawn Country>  (496) 
nan

>  <Withdrawn Class>  (496) 
nan

>  <SMILES>  (496) 
O=c1[nH]nc2[nH]c(CN3Cc4ccccc4C3)nc3cccc1c32

>  <InChi Key>  (496) 
JLFSBHQQXIAQEC-UHFFFAOYSA-N

$$$$
CHEMBL2325429
     RDKit          2D

 37 40  0  0  0  0  0  0  0  0999 V2000
    9.7500   -3.8971    0.0000 C   0  0  0  0  0  0  0  0  0  0  0  0
    8.2500   -3.8971    0.0000 C   0  0  0  0  0  0  0  0  0  0  0  0
    7.5000   -2.5981    0.0000 C   0  0  0  0  0  0  0  0  0  0  0  0
    6.0000   -2.5981    0.0000 C   0  0  0  0  0  0  0  0  0  0  0  0
    5.2500   -3.8971    0.0000 C   0  0  0  0  0  0  0  0  0  0  0  0
    3.7500   -3.8971    0.0000 C   0  0  0  0  0  0  0  0  0  0  0  0
    3.0000   -2.5981    0.0000 O   0  0  0  0  0  0  0  0  0  0  0  0
    3.0000   -5.1962    0.0000 N   0  0  0  0  0  0  0  0  0  0  0  0
    3.7500   -6.4952    0.0000 C   0  0  0  0  0  0  0  0  0  0  0  0
    5.2500   -6.4952    0.0000 C   0  0  0  0  0  0  0  0  0  0  0  0
    6.0000   -7.7942    0.0000 C   0  0  0  0  0  0  0  0  0  0  0  0
    7.5000   -7.7942    0.0000 N   0  0  0  0  0  0  0  0  0  0  0  0
    1.5000   -5.1962    0.0000 C   0  0  0  0  0  0  0  0  0  0  0  0
    0.7500   -3.8971    0.0000 C   0  0  0  0  0  0  0  0  0  0  0  0
    1.5000   -2.5981    0.0000 O   0  0  0  0  0  0  0  0  0  0  0  0
    0.7500   -1.2990    0.0000 C   0  0  0  0  0  0  0  0  0  0  0  0
    1.5000    0.0000    0.0000 C   0  0  0  0  0  0  0  0  0  0  0  0
    0.7500    1.2990    0.0000 C   0  0  0  0  0  0  0  0  0  0  0  0
    1.5000    2.5981    0.0000 Cl  0  0  0  0  0  0  0  0  0  0  0  0
   -0.7500    1.2990    0.0000 C   0  0  0  0  0  0  0  0  0  0  0  0
   -1.5000    0.0000    0.0000 C   0  0  0  0  0  0  0  0  0  0  0  0
   -0.7500   -1.2990    0.0000 C   0  0  0  0  0  0  0  0  0  0  0  0
   -1.5000   -2.5981    0.0000 C   0  0  0  0  0  0  0  0  0  0  0  0
   -3.0000   -2.5981    0.0000 O   0  0  0  0  0  0  0  0  0  0  0  0
   -0.7500   -3.8971    0.0000 C   0  0  0  0  0  0  0  0  0  0  0  0
   -1.5000   -5.1962    0.0000 C   0  0  0  0  0  0  0  0  0  0  0  0
   -3.0000   -5.1962    0.0000 C   0  0  0  0  0  0  0  0  0  0  0  0
   -3.7500   -3.8971    0.0000 C   0  0  0  0  0  0  0  0  0  0  0  0
   -5.2500   -3.8971    0.0000 C   0  0  0  0  0  0  0  0  0  0  0  0
   -6.0000   -5.1962    0.0000 C   0  0  0  0  0  0  0  0  0  0  0  0
   -5.2500   -6.4952    0.0000 C   0  0  0  0  0  0  0  0  0  0  0  0
   -3.7500   -6.4952    0.0000 C   0  0  0  0  0  0  0  0  0  0  0  0
    0.7500   -6.4952    0.0000 C   0  0  0  0  0  0  0  0  0  0  0  0
    1.5000   -7.7942    0.0000 C   0  0  0  0  0  0  0  0  0  0  0  0
   -0.7500   -6.4952    0.0000 C   0  0  0  0  0  0  0  0  0  0  0  0
    6.0000   -5.1962    0.0000 C   0  0  0  0  0  0  0  0  0  0  0  0
    7.5000   -5.1962    0.0000 C   0  0  0  0  0  0  0  0  0  0  0  0
  1  2  1  0
  2  3  2  0
  3  4  1  0
  4  5  2  0
  5  6  1  0
  6  7  2  0
  6  8  1  0
  8  9  1  0
  9 10  1  0
 10 11  1  0
 11 12  1  0
  8 13  1  0
 13 14  1  0
 14 15  1  0
 15 16  1  0
 16 17  2  0
 17 18  1  0
 18 19  1  0
 18 20  2  0
 20 21  1  0
 21 22  2  0
 22 23  1  0
 23 24  2  0
 23 25  1  0
 25 26  1  0
 26 27  1  0
 27 28  2  0
 28 29  1  0
 29 30  2  0
 30 31  1  0
 31 32  2  0
 13 33  1  6
 33 34  1  0
 33 35  1  0
  5 36  1  0
 36 37  2  0
 37  2  1  0
 25 14  2  0
 32 27  1  0
 22 16  1  0
M  END
>  <Synonyms>  (497) 
SB 743921|SB-743921|SB-743921 FREE BASE

>  <Research Codes>  (497) 
SB-743921|SB-743921 FREE BASE

>  <Phase>  (497) 
1

>  <Applicants>  (497) 
nan

>  <USAN Stem>  (497) 
nan

>  <USAN Year>  (497) 
nan

>  <USAN Stem Definition>  (497) 
nan

>  <USAN Stem Substem>  (497) 
nan

>  <First Approval>  (497) 
nan

>  <ATC Codes>  (497) 
nan

>  <Level 4 ATC Codes>  (497) 
nan

>  <Level 3 ATC Codes>  (497) 
nan

>  <Level 2 ATC Codes>  (497) 
nan

>  <Level 1 ATC Codes>  (497) 
nan

>  <Indication Class>  (497) 
nan

>  <Patent>  (497) 
nan

>  <Drug Type>  (497) 
1:Synthetic Small Molecule

>  <Passes Rule of Five>  (497) 
False

>  <First In Class>  (497) 
False

>  <Chirality>  (497) 
Single Stereoisomer

>  <Prodrug>  (497) 
False

>  <Oral>  (497) 
False

>  <Parenteral>  (497) 
False

>  <Topical>  (497) 
False

>  <Black Box>  (497) 
False

>  <Availability Type>  (497) 
Unknown

>  <Withdrawn Year>  (497) 
nan

>  <Withdrawn Reason>  (497) 
nan

>  <Withdrawn Country>  (497) 
nan

>  <Withdrawn Class>  (497) 
nan

>  <SMILES>  (497) 
Cc1ccc(C(=O)N(CCCN)[C@@H](c2oc3cc(Cl)ccc3c(=O)c2Cc2ccccc2)C(C)C)cc1

>  <InChi Key>  (497) 
PGXYIBJJCLWJST-MUUNZHRXSA-N

$$$$
CHEMBL456237
     RDKit          2D

 29 32  0  0  0  0  0  0  0  0999 V2000
    6.9199   -4.5797    0.0000 F   0  0  0  0  0  0  0  0  0  0  0  0
    5.4933   -4.1162    0.0000 C   0  0  0  0  0  0  0  0  0  0  0  0
    4.3786   -5.1199    0.0000 C   0  0  0  0  0  0  0  0  0  0  0  0
    2.9520   -4.6564    0.0000 C   0  0  0  0  0  0  0  0  0  0  0  0
    2.6401   -3.1891    0.0000 C   0  0  0  0  0  0  0  0  0  0  0  0
    1.2135   -2.7256    0.0000 C   0  0  0  0  0  0  0  0  0  0  0  0
    0.7500   -1.2990    0.0000 C   0  0  0  0  0  0  0  0  0  0  0  0
    1.5000    0.0000    0.0000 C   0  0  0  0  0  0  0  0  0  0  0  0
    0.7500    1.2990    0.0000 C   0  0  0  0  0  0  0  0  0  0  0  0
   -0.7500    1.2990    0.0000 C   0  0  0  0  0  0  0  0  0  0  0  0
   -1.5000    0.0000    0.0000 C   0  0  0  0  0  0  0  0  0  0  0  0
   -3.0000    0.0000    0.0000 C   0  0  0  0  0  0  0  0  0  0  0  0
   -4.5000    0.0000    0.0000 F   0  0  0  0  0  0  0  0  0  0  0  0
   -3.0000    1.5000    0.0000 F   0  0  0  0  0  0  0  0  0  0  0  0
   -3.0000   -1.5000    0.0000 F   0  0  0  0  0  0  0  0  0  0  0  0
   -0.7500   -1.2990    0.0000 C   0  0  0  0  0  0  0  0  0  0  0  0
   -1.2135   -2.7256    0.0000 N   0  0  0  0  0  0  0  0  0  0  0  0
    0.0000   -3.6073    0.0000 N   0  0  0  0  0  0  0  0  0  0  0  0
    0.0000   -5.1073    0.0000 C   0  0  0  0  0  0  0  0  0  0  0  0
   -1.2990   -5.8573    0.0000 C   0  0  0  0  0  0  0  0  0  0  0  0
   -2.5981   -5.1073    0.0000 C   0  0  0  0  0  0  0  0  0  0  0  0
   -3.8971   -5.8573    0.0000 C   0  0  0  0  0  0  0  0  0  0  0  0
   -3.8971   -7.3573    0.0000 C   0  0  0  0  0  0  0  0  0  0  0  0
   -5.1962   -8.1073    0.0000 F   0  0  0  0  0  0  0  0  0  0  0  0
   -2.5981   -8.1073    0.0000 C   0  0  0  0  0  0  0  0  0  0  0  0
   -1.2990   -7.3573    0.0000 C   0  0  0  0  0  0  0  0  0  0  0  0
   -0.0000   -8.1073    0.0000 Cl  0  0  0  0  0  0  0  0  0  0  0  0
    3.7548   -2.1855    0.0000 C   0  0  0  0  0  0  0  0  0  0  0  0
    5.1814   -2.6490    0.0000 C   0  0  0  0  0  0  0  0  0  0  0  0
  1  2  1  0
  2  3  2  0
  3  4  1  0
  4  5  2  0
  5  6  1  0
  6  7  2  0
  7  8  1  0
  8  9  2  0
  9 10  1  0
 10 11  2  0
 11 12  1  0
 12 13  1  0
 12 14  1  0
 12 15  1  0
 11 16  1  0
 16 17  2  0
 17 18  1  0
 18 19  1  0
 19 20  1  0
 20 21  2  0
 21 22  1  0
 22 23  2  0
 23 24  1  0
 23 25  1  0
 25 26  2  0
 26 27  1  0
  5 28  1  0
 28 29  2  0
 29  2  1  0
 18  6  1  0
 26 20  1  0
 16  7  1  0
M  END
>  <Synonyms>  (498) 
LXR-623|WAY-252623

>  <Research Codes>  (498) 
WAY-252623

>  <Phase>  (498) 
1

>  <Applicants>  (498) 
nan

>  <USAN Stem>  (498) 
nan

>  <USAN Year>  (498) 
nan

>  <USAN Stem Definition>  (498) 
nan

>  <USAN Stem Substem>  (498) 
nan

>  <First Approval>  (498) 
nan

>  <ATC Codes>  (498) 
nan

>  <Level 4 ATC Codes>  (498) 
nan

>  <Level 3 ATC Codes>  (498) 
nan

>  <Level 2 ATC Codes>  (498) 
nan

>  <Level 1 ATC Codes>  (498) 
nan

>  <Indication Class>  (498) 
nan

>  <Patent>  (498) 
nan

>  <Drug Type>  (498) 
1:Synthetic Small Molecule

>  <Passes Rule of Five>  (498) 
False

>  <First In Class>  (498) 
False

>  <Chirality>  (498) 
Achiral Molecule

>  <Prodrug>  (498) 
False

>  <Oral>  (498) 
False

>  <Parenteral>  (498) 
False

>  <Topical>  (498) 
False

>  <Black Box>  (498) 
False

>  <Availability Type>  (498) 
Unknown

>  <Withdrawn Year>  (498) 
nan

>  <Withdrawn Reason>  (498) 
nan

>  <Withdrawn Country>  (498) 
nan

>  <Withdrawn Class>  (498) 
nan

>  <SMILES>  (498) 
Fc1ccc(-c2c3cccc(C(F)(F)F)c3nn2Cc2ccc(F)cc2Cl)cc1

>  <InChi Key>  (498) 
KYWWJENKIMRJBI-UHFFFAOYSA-N

$$$$
CHEMBL1093059
     RDKit          2D

 36 40  0  0  0  0  0  0  0  0999 V2000
    2.6491    0.9642    0.0000 C   0  0  0  0  0  0  0  0  0  0  0  0
    1.5000    0.0000    0.0000 C   0  0  0  0  0  0  0  0  0  0  0  0
    2.6491   -0.9642    0.0000 C   0  0  0  0  0  0  0  0  0  0  0  0
    0.7500   -1.2990    0.0000 C   0  0  0  0  0  0  0  0  0  0  0  0
   -0.7500   -1.2990    0.0000 C   0  0  0  0  0  0  0  0  0  0  0  0
   -1.5000    0.0000    0.0000 C   0  0  0  0  0  0  0  0  0  0  0  0
   -2.2500   -1.2990    0.0000 C   0  0  0  0  0  0  0  0  0  0  0  0
   -1.5000   -2.5981    0.0000 O   0  0  0  0  0  0  0  0  0  0  0  0
   -3.7500   -1.2990    0.0000 O   0  0  0  0  0  0  0  0  0  0  0  0
   -3.0000    0.0000    0.0000 C   0  0  0  0  0  0  0  0  0  0  0  0
   -3.7500    1.2990    0.0000 C   0  0  0  0  0  0  0  0  0  0  0  0
   -3.0000    2.5981    0.0000 C   0  0  0  0  0  0  0  0  0  0  0  0
   -3.9768    2.4781    0.0000 C   0  0  0  0  0  0  0  0  0  0  0  0
   -1.5000    2.5981    0.0000 C   0  0  0  0  0  0  0  0  0  0  0  0
   -0.7500    3.8971    0.0000 C   0  0  0  0  0  0  0  0  0  0  0  0
    0.7500    3.8971    0.0000 O   0  0  0  0  0  0  0  0  0  0  0  0
   -1.5000    5.1962    0.0000 C   0  0  0  0  0  0  0  0  0  0  0  0
   -3.0000    5.1962    0.0000 C   0  0  0  0  0  0  0  0  0  0  0  0
   -3.7500    3.8971    0.0000 C   0  0  0  0  0  0  0  0  0  0  0  0
   -4.3423    3.1112    0.0000 C   0  0  0  0  0  0  0  0  0  0  0  0
   -5.2500    3.8971    0.0000 C   0  0  0  0  0  0  0  0  0  0  0  0
   -6.0000    5.1962    0.0000 C   0  0  0  0  0  0  0  0  0  0  0  0
   -5.2500    6.4952    0.0000 C   0  0  0  0  0  0  0  0  0  0  0  0
   -6.0000    7.7942    0.0000 C   0  0  0  0  0  0  0  0  0  0  0  0
   -7.1491    8.7584    0.0000 C   0  0  0  0  0  0  0  0  0  0  0  0
   -7.1491    6.8300    0.0000 C   0  0  0  0  0  0  0  0  0  0  0  0
   -5.2500    9.0933    0.0000 C   0  0  0  0  0  0  0  0  0  0  0  0
   -6.0000   10.3923    0.0000 O   0  0  0  0  0  0  0  0  0  0  0  0
   -3.7500    9.0933    0.0000 C   0  0  0  0  0  0  0  0  0  0  0  0
   -3.0000   10.3923    0.0000 C   0  0  0  0  0  0  0  0  0  0  0  0
   -2.2500   11.6913    0.0000 N   0  0  0  0  0  0  0  0  0  0  0  0
   -3.0000    7.7942    0.0000 C   0  0  0  0  0  0  0  0  0  0  0  0
   -3.7500    6.4952    0.0000 C   0  0  0  0  0  0  0  0  0  0  0  0
   -2.2500    6.4952    0.0000 C   0  0  0  0  0  0  0  0  0  0  0  0
   -0.7500    1.2990    0.0000 C   0  0  0  0  0  0  0  0  0  0  0  0
    0.7500    1.2990    0.0000 C   0  0  0  0  0  0  0  0  0  0  0  0
  1  2  1  0
  2  3  1  0
  2  4  1  0
  4  5  1  0
  5  6  1  0
  6  7  1  1
  7  8  2  0
  7  9  1  0
  6 10  1  0
 10 11  1  0
 11 12  1  0
 12 13  1  6
 12 14  1  0
 14 15  1  0
 15 16  2  0
 15 17  1  0
 17 18  2  0
 18 19  1  0
 19 20  1  1
 19 21  1  0
 21 22  1  0
 23 22  1  1
 23 24  1  0
 24 25  1  0
 24 26  1  0
 24 27  1  0
 27 28  2  0
 27 29  1  0
 29 30  1  0
 30 31  3  0
 29 32  2  0
 32 33  1  0
 33 34  1  1
 14 35  1  0
 35 36  1  6
 36  2  1  0
 35  6  1  0
 19 12  1  0
 33 23  1  0
 33 18  1  0
M  END
>  <Synonyms>  (499) 
2-CYANO-3,12-DIOXOOLEANA-1,9(11)-DIEN-28-OIC ACID|BARDOXOLONE|CDDO|RTA 401

>  <Research Codes>  (499) 
CDDO|RTA-401

>  <Phase>  (499) 
1

>  <Applicants>  (499) 
nan

>  <USAN Stem>  (499) 
'-olone'

>  <USAN Year>  (499) 
2009.0

>  <USAN Stem Definition>  (499) 
steroids (not prednisolone derivatives)

>  <USAN Stem Substem>  (499) 
'-olone(-olone)'

>  <First Approval>  (499) 
nan

>  <ATC Codes>  (499) 
nan

>  <Level 4 ATC Codes>  (499) 
nan

>  <Level 3 ATC Codes>  (499) 
nan

>  <Level 2 ATC Codes>  (499) 
nan

>  <Level 1 ATC Codes>  (499) 
nan

>  <Indication Class>  (499) 
nan

>  <Patent>  (499) 
nan

>  <Drug Type>  (499) 
1:Synthetic Small Molecule

>  <Passes Rule of Five>  (499) 
False

>  <First In Class>  (499) 
False

>  <Chirality>  (499) 
Single Stereoisomer

>  <Prodrug>  (499) 
False

>  <Oral>  (499) 
False

>  <Parenteral>  (499) 
False

>  <Topical>  (499) 
False

>  <Black Box>  (499) 
False

>  <Availability Type>  (499) 
Unknown

>  <Withdrawn Year>  (499) 
nan

>  <Withdrawn Reason>  (499) 
nan

>  <Withdrawn Country>  (499) 
nan

>  <Withdrawn Class>  (499) 
nan

>  <SMILES>  (499) 
CC1(C)CC[C@]2(C(=O)O)CC[C@]3(C)[C@H](C(=O)C=C4[C@@]3(C)CC[C@H]3C(C)(C)C(=O)C(C#N)=C[C@]43C)[C@@H]2C1

>  <InChi Key>  (499) 
TXGZJQLMVSIZEI-OCJNZCKSSA-N

$$$$
CHEMBL3128043
     RDKit          2D

 35 39  0  0  0  0  0  0  0  0999 V2000
   -2.9499    4.2246    0.0000 C   0  0  0  0  0  0  0  0  0  0  0  0
   -1.8351    3.2209    0.0000 C   0  0  0  0  0  0  0  0  0  0  0  0
   -0.4086    3.6844    0.0000 N   0  0  0  0  0  0  0  0  0  0  0  0
    0.7062    2.6807    0.0000 C   0  0  0  0  0  0  0  0  0  0  0  0
    2.1328    3.1443    0.0000 N   0  0  0  0  0  0  0  0  0  0  0  0
    2.4446    4.6115    0.0000 C   0  0  0  0  0  0  0  0  0  0  0  0
    1.4409    5.7262    0.0000 N   0  0  0  0  0  0  0  0  0  0  0  0
    2.1909    7.0252    0.0000 N   0  0  0  0  0  0  0  0  0  0  0  0
    3.6581    6.7134    0.0000 C   0  0  0  0  0  0  0  0  0  0  0  0
    3.8149    5.2216    0.0000 C   0  0  0  0  0  0  0  0  0  0  0  0
    5.2822    4.9097    0.0000 C   0  0  0  0  0  0  0  0  0  0  0  0
    6.0322    6.2088    0.0000 N   0  0  0  0  0  0  0  0  0  0  0  0
    7.5239    6.3656    0.0000 C   0  0  0  0  0  0  0  0  0  0  0  0
    8.1340    7.7359    0.0000 O   0  0  0  0  0  0  0  0  0  0  0  0
    8.4056    5.1520    0.0000 N   0  0  0  0  0  0  0  0  0  0  0  0
    9.8974    5.3088    0.0000 C   0  0  0  0  0  0  0  0  0  0  0  0
   10.5075    6.6791    0.0000 C   0  0  0  0  0  0  0  0  0  0  0  0
   11.9993    6.8359    0.0000 N   0  0  0  0  0  0  0  0  0  0  0  0
   12.6094    8.2063    0.0000 C   0  0  0  0  0  0  0  0  0  0  0  0
   12.8810    5.6224    0.0000 C   0  0  0  0  0  0  0  0  0  0  0  0
   10.7791    4.0953    0.0000 C   0  0  0  0  0  0  0  0  0  0  0  0
   10.1690    2.7250    0.0000 C   0  0  0  0  0  0  0  0  0  0  0  0
   11.0507    1.5115    0.0000 C   0  0  0  0  0  0  0  0  0  0  0  0
   12.5424    1.6683    0.0000 C   0  0  0  0  0  0  0  0  0  0  0  0
   13.1525    3.0386    0.0000 C   0  0  0  0  0  0  0  0  0  0  0  0
   12.2709    4.2521    0.0000 C   0  0  0  0  0  0  0  0  0  0  0  0
    5.0285    7.3235    0.0000 C   0  0  0  0  0  0  0  0  0  0  0  0
    6.2420    8.2052    0.0000 C   0  0  0  0  0  0  0  0  0  0  0  0
    4.2785    8.6225    0.0000 C   0  0  0  0  0  0  0  0  0  0  0  0
    0.3943    1.2135    0.0000 C   0  0  0  0  0  0  0  0  0  0  0  0
    1.2760    0.0000    0.0000 S   0  0  0  0  0  0  0  0  0  0  0  0
    0.3943   -1.2135    0.0000 C   0  0  0  0  0  0  0  0  0  0  0  0
   -1.0323   -0.7500    0.0000 C   0  0  0  0  0  0  0  0  0  0  0  0
   -1.0323    0.7500    0.0000 C   0  0  0  0  0  0  0  0  0  0  0  0
   -2.1470    1.7537    0.0000 N   0  0  0  0  0  0  0  0  0  0  0  0
  1  2  1  0
  2  3  2  0
  3  4  1  0
  4  5  2  3
  5  6  1  0
  6  7  1  0
  7  8  1  0
  8  9  2  0
  9 10  1  0
 10 11  1  0
 11 12  1  0
 12 13  1  0
 13 14  2  0
 13 15  1  0
 15 16  1  0
 16 17  1  6
 17 18  1  0
 18 19  1  0
 18 20  1  0
 16 21  1  0
 21 22  2  0
 22 23  1  0
 23 24  2  0
 24 25  1  0
 25 26  2  0
 12 27  1  0
 27 28  1  0
 27 29  1  0
  4 30  1  0
 30 31  1  0
 31 32  1  0
 32 33  2  0
 33 34  1  0
 34 35  1  0
 35  2  1  0
 10  6  2  0
 26 21  1  0
 34 30  2  0
 27  9  1  0
M  END
>  <Synonyms>  (500) 
PF-03758309|PF-3758309

>  <Research Codes>  (500) 
PF-03758309|PF-3758309

>  <Phase>  (500) 
1

>  <Applicants>  (500) 
nan

>  <USAN Stem>  (500) 
nan

>  <USAN Year>  (500) 
nan

>  <USAN Stem Definition>  (500) 
nan

>  <USAN Stem Substem>  (500) 
nan

>  <First Approval>  (500) 
nan

>  <ATC Codes>  (500) 
nan

>  <Level 4 ATC Codes>  (500) 
nan

>  <Level 3 ATC Codes>  (500) 
nan

>  <Level 2 ATC Codes>  (500) 
nan

>  <Level 1 ATC Codes>  (500) 
nan

>  <Indication Class>  (500) 
nan

>  <Patent>  (500) 
nan

>  <Drug Type>  (500) 
1:Synthetic Small Molecule

>  <Passes Rule of Five>  (500) 
True

>  <First In Class>  (500) 
False

>  <Chirality>  (500) 
Single Stereoisomer

>  <Prodrug>  (500) 
False

>  <Oral>  (500) 
False

>  <Parenteral>  (500) 
False

>  <Topical>  (500) 
False

>  <Black Box>  (500) 
False

>  <Availability Type>  (500) 
Unknown

>  <Withdrawn Year>  (500) 
nan

>  <Withdrawn Reason>  (500) 
nan

>  <Withdrawn Country>  (500) 
nan

>  <Withdrawn Class>  (500) 
nan

>  <SMILES>  (500) 
Cc1nc(Nc2[nH]nc3c2CN(C(=O)N[C@H](CN(C)C)c2ccccc2)C3(C)C)c2sccc2n1

>  <InChi Key>  (500) 
AYCPARAPKDAOEN-LJQANCHMSA-N

$$$$
CHEMBL1090479
     RDKit          2D

 38 42  0  0  0  0  0  0  0  0999 V2000
    4.8308   -6.3240    0.0000 C   0  0  0  0  0  0  0  0  0  0  0  0
    4.6740   -4.8322    0.0000 C   0  0  0  0  0  0  0  0  0  0  0  0
    3.3037   -4.2221    0.0000 N   0  0  0  0  0  0  0  0  0  0  0  0
    2.9918   -2.7549    0.0000 C   0  0  0  0  0  0  0  0  0  0  0  0
    1.5000   -2.5981    0.0000 C   0  0  0  0  0  0  0  0  0  0  0  0
    0.7500   -1.2990    0.0000 C   0  0  0  0  0  0  0  0  0  0  0  0
   -0.7500   -1.2990    0.0000 C   0  0  0  0  0  0  0  0  0  0  0  0
   -1.5000   -0.0000    0.0000 C   0  0  0  0  0  0  0  0  0  0  0  0
   -0.7500    1.2990    0.0000 N   0  0  0  0  0  0  0  0  0  0  0  0
    0.7500    1.2990    0.0000 C   0  0  0  0  0  0  0  0  0  0  0  0
    1.7537    2.4138    0.0000 N   0  0  0  0  0  0  0  0  0  0  0  0
    3.1240    1.8037    0.0000 C   0  0  0  0  0  0  0  0  0  0  0  0
    4.4231    2.5537    0.0000 C   0  0  0  0  0  0  0  0  0  0  0  0
    4.4231    4.0537    0.0000 C   0  0  0  0  0  0  0  0  0  0  0  0
    5.7221    4.8037    0.0000 C   0  0  0  0  0  0  0  0  0  0  0  0
    7.0211    4.0537    0.0000 C   0  0  0  0  0  0  0  0  0  0  0  0
    7.0211    2.5537    0.0000 C   0  0  0  0  0  0  0  0  0  0  0  0
    8.3202    1.8037    0.0000 C   0  0  0  0  0  0  0  0  0  0  0  0
    9.6192    2.5537    0.0000 N   0  0  0  0  0  0  0  0  0  0  0  0
   10.9182    1.8037    0.0000 C   0  0  0  0  0  0  0  0  0  0  0  0
    9.6192    4.0537    0.0000 C   0  0  0  0  0  0  0  0  0  0  0  0
    5.7221    1.8037    0.0000 C   0  0  0  0  0  0  0  0  0  0  0  0
    2.9672    0.3119    0.0000 C   0  0  0  0  0  0  0  0  0  0  0  0
    1.5000   -0.0000    0.0000 C   0  0  0  0  0  0  0  0  0  0  0  0
    0.8899   -3.9684    0.0000 C   0  0  0  0  0  0  0  0  0  0  0  0
   -0.5773   -4.2803    0.0000 C   0  0  0  0  0  0  0  0  0  0  0  0
   -1.5810   -3.1655    0.0000 C   0  0  0  0  0  0  0  0  0  0  0  0
   -3.0482   -3.4774    0.0000 C   0  0  0  0  0  0  0  0  0  0  0  0
   -3.5118   -4.9040    0.0000 C   0  0  0  0  0  0  0  0  0  0  0  0
   -4.9790   -5.2159    0.0000 N   0  0  0  0  0  0  0  0  0  0  0  0
   -5.9827   -4.1011    0.0000 C   0  0  0  0  0  0  0  0  0  0  0  0
   -5.5192   -2.6746    0.0000 O   0  0  0  0  0  0  0  0  0  0  0  0
   -7.4499   -4.4130    0.0000 N   0  0  0  0  0  0  0  0  0  0  0  0
   -8.4536   -3.2983    0.0000 C   0  0  0  0  0  0  0  0  0  0  0  0
   -7.9134   -5.8396    0.0000 C   0  0  0  0  0  0  0  0  0  0  0  0
   -2.5081   -6.0187    0.0000 C   0  0  0  0  0  0  0  0  0  0  0  0
   -1.0409   -5.7068    0.0000 C   0  0  0  0  0  0  0  0  0  0  0  0
    2.0046   -4.9721    0.0000 N   0  0  0  0  0  0  0  0  0  0  0  0
  1  2  1  0
  2  3  1  0
  3  4  1  0
  4  5  2  0
  5  6  1  0
  6  7  2  0
  7  8  1  0
  8  9  2  0
  9 10  1  0
 10 11  1  0
 11 12  1  0
 12 13  1  0
 13 14  2  0
 14 15  1  0
 15 16  2  0
 16 17  1  0
 17 18  1  0
 18 19  1  0
 19 20  1  0
 19 21  1  0
 17 22  2  0
 12 23  2  0
 23 24  1  0
  5 25  1  0
 25 26  1  0
 26 27  2  0
 27 28  1  0
 28 29  2  0
 29 30  1  0
 30 31  1  0
 31 32  2  0
 31 33  1  0
 33 34  1  0
 33 35  1  0
 29 36  1  0
 36 37  2  0
 25 38  2  0
 38  3  1  0
 24  6  1  0
 37 26  1  0
 24 10  2  0
 22 13  1  0
M  END
>  <Synonyms>  (501) 
GSK 1070916A|GSK-1070916|GSK1070916

>  <Research Codes>  (501) 
GSK 1070916A|GSK1070916

>  <Phase>  (501) 
1

>  <Applicants>  (501) 
nan

>  <USAN Stem>  (501) 
nan

>  <USAN Year>  (501) 
nan

>  <USAN Stem Definition>  (501) 
nan

>  <USAN Stem Substem>  (501) 
nan

>  <First Approval>  (501) 
nan

>  <ATC Codes>  (501) 
nan

>  <Level 4 ATC Codes>  (501) 
nan

>  <Level 3 ATC Codes>  (501) 
nan

>  <Level 2 ATC Codes>  (501) 
nan

>  <Level 1 ATC Codes>  (501) 
nan

>  <Indication Class>  (501) 
nan

>  <Patent>  (501) 
nan

>  <Drug Type>  (501) 
1:Synthetic Small Molecule

>  <Passes Rule of Five>  (501) 
False

>  <First In Class>  (501) 
False

>  <Chirality>  (501) 
Achiral Molecule

>  <Prodrug>  (501) 
False

>  <Oral>  (501) 
False

>  <Parenteral>  (501) 
False

>  <Topical>  (501) 
False

>  <Black Box>  (501) 
False

>  <Availability Type>  (501) 
Unknown

>  <Withdrawn Year>  (501) 
nan

>  <Withdrawn Reason>  (501) 
nan

>  <Withdrawn Country>  (501) 
nan

>  <Withdrawn Class>  (501) 
nan

>  <SMILES>  (501) 
CCn1cc(-c2ccnc3[nH]c(-c4cccc(CN(C)C)c4)cc23)c(-c2ccc(NC(=O)N(C)C)cc2)n1

>  <InChi Key>  (501) 
QTBWCSQGBMPECM-UHFFFAOYSA-N

$$$$
CHEMBL346919
     RDKit          2D

 12 12  0  0  0  0  0  0  0  0999 V2000
    3.7500   -1.2990    0.0000 C   0  0  0  0  0  0  0  0  0  0  0  0
    3.0000    0.0000    0.0000 O   0  0  0  0  0  0  0  0  0  0  0  0
    1.5000    0.0000    0.0000 C   0  0  0  0  0  0  0  0  0  0  0  0
    0.7500   -1.2990    0.0000 C   0  0  0  0  0  0  0  0  0  0  0  0
   -0.7500   -1.2990    0.0000 C   0  0  0  0  0  0  0  0  0  0  0  0
   -1.5000   -2.5981    0.0000 C   0  0  0  0  0  0  0  0  0  0  0  0
   -3.0000   -2.5981    0.0000 C   0  0  0  0  0  0  0  0  0  0  0  0
   -0.7500   -3.8971    0.0000 O   0  0  0  0  0  0  0  0  0  0  0  0
   -1.5000    0.0000    0.0000 C   0  0  0  0  0  0  0  0  0  0  0  0
   -0.7500    1.2990    0.0000 C   0  0  0  0  0  0  0  0  0  0  0  0
    0.7500    1.2990    0.0000 C   0  0  0  0  0  0  0  0  0  0  0  0
    1.5000    2.5981    0.0000 O   0  0  0  0  0  0  0  0  0  0  0  0
  1  2  1  0
  2  3  1  0
  3  4  2  0
  4  5  1  0
  5  6  1  0
  6  7  1  0
  6  8  2  0
  5  9  2  0
  9 10  1  0
 10 11  2  0
 11 12  1  0
 11  3  1  0
M  END
>  <Synonyms>  (502) 
APOCYNIN|Acetovanillone|NSC-209524

>  <Research Codes>  (502) 
NSC-209524

>  <Phase>  (502) 
1

>  <Applicants>  (502) 
nan

>  <USAN Stem>  (502) 
nan

>  <USAN Year>  (502) 
nan

>  <USAN Stem Definition>  (502) 
nan

>  <USAN Stem Substem>  (502) 
nan

>  <First Approval>  (502) 
nan

>  <ATC Codes>  (502) 
nan

>  <Level 4 ATC Codes>  (502) 
nan

>  <Level 3 ATC Codes>  (502) 
nan

>  <Level 2 ATC Codes>  (502) 
nan

>  <Level 1 ATC Codes>  (502) 
nan

>  <Indication Class>  (502) 
nan

>  <Patent>  (502) 
nan

>  <Drug Type>  (502) 
1:Synthetic Small Molecule

>  <Passes Rule of Five>  (502) 
True

>  <First In Class>  (502) 
False

>  <Chirality>  (502) 
Achiral Molecule

>  <Prodrug>  (502) 
False

>  <Oral>  (502) 
False

>  <Parenteral>  (502) 
False

>  <Topical>  (502) 
False

>  <Black Box>  (502) 
False

>  <Availability Type>  (502) 
Unknown

>  <Withdrawn Year>  (502) 
nan

>  <Withdrawn Reason>  (502) 
nan

>  <Withdrawn Country>  (502) 
nan

>  <Withdrawn Class>  (502) 
nan

>  <SMILES>  (502) 
COc1cc(C(C)=O)ccc1O

>  <InChi Key>  (502) 
DFYRUELUNQRZTB-UHFFFAOYSA-N

$$$$
CHEMBL105184
     RDKit          2D

 30 33  0  0  0  0  0  0  0  0999 V2000
   -0.8995    7.6226    0.0000 C   0  0  0  0  0  0  0  0  0  0  0  0
   -1.2114    6.1554    0.0000 O   0  0  0  0  0  0  0  0  0  0  0  0
   -0.0967    5.1517    0.0000 C   0  0  0  0  0  0  0  0  0  0  0  0
    0.6544    5.6211    0.0000 O   0  0  0  0  0  0  0  0  0  0  0  0
   -0.4086    3.6844    0.0000 C   0  0  0  0  0  0  0  0  0  0  0  0
   -1.8351    3.2209    0.0000 C   0  0  0  0  0  0  0  0  0  0  0  0
   -2.1470    1.7537    0.0000 C   0  0  0  0  0  0  0  0  0  0  0  0
   -3.5736    1.2902    0.0000 O   0  0  0  0  0  0  0  0  0  0  0  0
   -4.6883    2.2939    0.0000 C   0  0  0  0  0  0  0  0  0  0  0  0
   -1.0323    0.7500    0.0000 C   0  0  0  0  0  0  0  0  0  0  0  0
    0.3943    1.2135    0.0000 C   0  0  0  0  0  0  0  0  0  0  0  0
    0.7062    2.6807    0.0000 C   0  0  0  0  0  0  0  0  0  0  0  0
    2.1328    3.1443    0.0000 C   0  0  0  0  0  0  0  0  0  0  0  0
    3.2475    2.1406    0.0000 C   0  0  0  0  0  0  0  0  0  0  0  0
    2.9356    0.6734    0.0000 C   0  0  0  0  0  0  0  0  0  0  0  0
    4.0503   -0.3303    0.0000 O   0  0  0  0  0  0  0  0  0  0  0  0
    1.5090    0.2098    0.0000 O   0  0  0  0  0  0  0  0  0  0  0  0
    1.1971   -1.2574    0.0000 C   0  0  0  0  0  0  0  0  0  0  0  0
    4.6741    2.6041    0.0000 C   0  0  0  0  0  0  0  0  0  0  0  0
    4.9859    4.0713    0.0000 C   0  0  0  0  0  0  0  0  0  0  0  0
    6.4125    4.5348    0.0000 O   0  0  0  0  0  0  0  0  0  0  0  0
    7.5272    3.5312    0.0000 C   0  0  0  0  0  0  0  0  0  0  0  0
    3.8712    5.0750    0.0000 C   0  0  0  0  0  0  0  0  0  0  0  0
    2.4446    4.6115    0.0000 C   0  0  0  0  0  0  0  0  0  0  0  0
    1.5629    5.8250    0.0000 O   0  0  0  0  0  0  0  0  0  0  0  0
    2.4446    7.0385    0.0000 C   0  0  0  0  0  0  0  0  0  0  0  0
    3.8712    6.5750    0.0000 O   0  0  0  0  0  0  0  0  0  0  0  0
    1.2760    0.0000    0.0000 O   0  0  0  0  0  0  0  0  0  0  0  0
    0.3943   -1.2135    0.0000 C   0  0  0  0  0  0  0  0  0  0  0  0
   -1.0323   -0.7500    0.0000 O   0  0  0  0  0  0  0  0  0  0  0  0
  1  2  1  0
  2  3  1  0
  3  4  2  0
  3  5  1  0
  5  6  2  0
  6  7  1  0
  7  8  1  0
  8  9  1  0
  7 10  2  0
 10 11  1  0
 11 12  2  0
 12 13  1  0
 13 14  2  0
 14 15  1  0
 15 16  2  0
 15 17  1  0
 17 18  1  0
 14 19  1  0
 19 20  2  0
 20 21  1  0
 21 22  1  0
 20 23  1  0
 23 24  2  0
 24 25  1  0
 25 26  1  0
 26 27  1  0
 11 28  1  0
 28 29  1  0
 29 30  1  0
 12  5  1  0
 24 13  1  0
 30 10  1  0
 27 23  1  0
M  END
>  <Synonyms>  (503) 
BIFENDATE

>  <Research Codes>  (503) 
nan

>  <Phase>  (503) 
1

>  <Applicants>  (503) 
nan

>  <USAN Stem>  (503) 
nan

>  <USAN Year>  (503) 
nan

>  <USAN Stem Definition>  (503) 
nan

>  <USAN Stem Substem>  (503) 
nan

>  <First Approval>  (503) 
nan

>  <ATC Codes>  (503) 
nan

>  <Level 4 ATC Codes>  (503) 
nan

>  <Level 3 ATC Codes>  (503) 
nan

>  <Level 2 ATC Codes>  (503) 
nan

>  <Level 1 ATC Codes>  (503) 
nan

>  <Indication Class>  (503) 
nan

>  <Patent>  (503) 
nan

>  <Drug Type>  (503) 
1:Synthetic Small Molecule

>  <Passes Rule of Five>  (503) 
True

>  <First In Class>  (503) 
False

>  <Chirality>  (503) 
Achiral Molecule

>  <Prodrug>  (503) 
False

>  <Oral>  (503) 
False

>  <Parenteral>  (503) 
False

>  <Topical>  (503) 
False

>  <Black Box>  (503) 
False

>  <Availability Type>  (503) 
Unknown

>  <Withdrawn Year>  (503) 
nan

>  <Withdrawn Reason>  (503) 
nan

>  <Withdrawn Country>  (503) 
nan

>  <Withdrawn Class>  (503) 
nan

>  <SMILES>  (503) 
COC(=O)c1cc(OC)c2c(c1-c1c(C(=O)OC)cc(OC)c3c1OCO3)OCO2

>  <InChi Key>  (503) 
JMZOMFYRADAWOG-UHFFFAOYSA-N

$$$$
CHEMBL19892
     RDKit          2D

 27 29  0  0  0  0  0  0  0  0999 V2000
    1.5000   -5.1962    0.0000 O   0  0  0  0  0  0  0  0  0  0  0  0
    0.7500   -3.8971    0.0000 C   0  0  0  0  0  0  0  0  0  0  0  0
    1.5000   -2.5981    0.0000 N   0  0  0  0  0  0  0  0  0  0  0  0
    0.7500   -1.2990    0.0000 C   0  0  0  0  0  0  0  0  0  0  0  0
    1.5000    0.0000    0.0000 C   0  0  0  0  0  0  0  0  0  0  0  0
    0.7500    1.2990    0.0000 C   0  0  0  0  0  0  0  0  0  0  0  0
    1.5000    2.5981    0.0000 C   0  0  0  0  0  0  0  0  0  0  0  0
    2.2500    3.8971    0.0000 F   0  0  0  0  0  0  0  0  0  0  0  0
    2.7990    1.8481    0.0000 F   0  0  0  0  0  0  0  0  0  0  0  0
    0.2010    3.3481    0.0000 F   0  0  0  0  0  0  0  0  0  0  0  0
   -0.7500    1.2990    0.0000 C   0  0  0  0  0  0  0  0  0  0  0  0
   -1.5000    2.5981    0.0000 N   0  0  0  0  0  0  0  0  0  0  0  0
   -0.7500    3.8971    0.0000 C   0  0  0  0  0  0  0  0  0  0  0  0
   -1.5000    5.1962    0.0000 C   0  0  0  0  0  0  0  0  0  0  0  0
   -3.0000    5.1962    0.0000 O   0  0  0  0  0  0  0  0  0  0  0  0
   -3.7500    3.8971    0.0000 C   0  0  0  0  0  0  0  0  0  0  0  0
   -3.0000    2.5981    0.0000 C   0  0  0  0  0  0  0  0  0  0  0  0
   -1.5000    0.0000    0.0000 C   0  0  0  0  0  0  0  0  0  0  0  0
   -0.7500   -1.2990    0.0000 C   0  0  0  0  0  0  0  0  0  0  0  0
   -1.5000   -2.5981    0.0000 N   0  0  0  0  0  0  0  0  0  0  0  0
   -3.0000   -2.5981    0.0000 C   0  0  0  0  0  0  0  0  0  0  0  0
   -3.7500   -1.2990    0.0000 P   0  0  0  0  0  7  0  0  0  0  0  0
   -4.5000   -0.0000    0.0000 O   0  0  0  0  0  0  0  0  0  0  0  0
   -5.0490   -2.0490    0.0000 O   0  0  0  0  0  0  0  0  0  0  0  0
   -2.4510   -0.5490    0.0000 O   0  0  0  0  0  0  0  0  0  0  0  0
   -0.7500   -3.8971    0.0000 C   0  0  0  0  0  0  0  0  0  0  0  0
   -1.5000   -5.1962    0.0000 O   0  0  0  0  0  0  0  0  0  0  0  0
  1  2  2  0
  2  3  1  0
  3  4  1  0
  4  5  2  0
  5  6  1  0
  6  7  1  0
  7  8  1  0
  7  9  1  0
  7 10  1  0
  6 11  2  0
 11 12  1  0
 12 13  1  0
 13 14  1  0
 14 15  1  0
 15 16  1  0
 16 17  1  0
 11 18  1  0
 18 19  2  0
 19 20  1  0
 20 21  1  0
 21 22  1  0
 22 23  2  0
 22 24  2  0
 22 25  1  0
 20 26  1  0
 26 27  2  0
 26  2  1  0
 19  4  1  0
 17 12  1  0
M  END
>  <Synonyms>  (504) 
FANAPANEL|ZK-200775|ZK200775

>  <Research Codes>  (504) 
ZK-200775|ZK200775

>  <Phase>  (504) 
1

>  <Applicants>  (504) 
nan

>  <USAN Stem>  (504) 
nan

>  <USAN Year>  (504) 
nan

>  <USAN Stem Definition>  (504) 
nan

>  <USAN Stem Substem>  (504) 
nan

>  <First Approval>  (504) 
nan

>  <ATC Codes>  (504) 
nan

>  <Level 4 ATC Codes>  (504) 
nan

>  <Level 3 ATC Codes>  (504) 
nan

>  <Level 2 ATC Codes>  (504) 
nan

>  <Level 1 ATC Codes>  (504) 
nan

>  <Indication Class>  (504) 
nan

>  <Patent>  (504) 
nan

>  <Drug Type>  (504) 
1:Synthetic Small Molecule

>  <Passes Rule of Five>  (504) 
True

>  <First In Class>  (504) 
False

>  <Chirality>  (504) 
Achiral Molecule

>  <Prodrug>  (504) 
False

>  <Oral>  (504) 
False

>  <Parenteral>  (504) 
False

>  <Topical>  (504) 
False

>  <Black Box>  (504) 
False

>  <Availability Type>  (504) 
Unknown

>  <Withdrawn Year>  (504) 
nan

>  <Withdrawn Reason>  (504) 
nan

>  <Withdrawn Country>  (504) 
nan

>  <Withdrawn Class>  (504) 
nan

>  <SMILES>  (504) 
O=c1[nH]c2cc(C(F)(F)F)c(N3CCOCC3)cc2n(CP(=O)(O)O)c1=O

>  <InChi Key>  (504) 
IPODDIOOEOCLTA-UHFFFAOYSA-N

$$$$
CHEMBL37676
     RDKit          2D

 16 17  0  0  0  0  0  0  0  0999 V2000
   -1.5000   -5.1962    0.0000 C   0  0  0  0  0  0  0  0  0  0  0  0
   -0.7500   -3.8971    0.0000 C   0  0  0  0  0  0  0  0  0  0  0  0
   -1.5000   -2.5981    0.0000 C   0  0  0  0  0  0  0  0  0  0  0  0
   -3.0000   -2.5981    0.0000 C   0  0  0  0  0  0  0  0  0  0  0  0
   -0.7500   -1.2990    0.0000 C   0  0  0  0  0  0  0  0  0  0  0  0
    0.7500   -1.2990    0.0000 C   0  0  0  0  0  0  0  0  0  0  0  0
    1.5000   -2.5981    0.0000 C   0  0  0  0  0  0  0  0  0  0  0  0
    3.0000   -2.5981    0.0000 C   0  0  0  0  0  0  0  0  0  0  0  0
    0.7500   -3.8971    0.0000 C   0  0  0  0  0  0  0  0  0  0  0  0
    1.5000   -5.1962    0.0000 O   0  0  0  0  0  0  0  0  0  0  0  0
    1.5000    0.0000    0.0000 C   0  0  0  0  0  0  0  0  0  0  0  0
    0.7500    1.2990    0.0000 C   0  0  0  0  0  0  0  0  0  0  0  0
   -0.7500    1.2990    0.0000 C   0  0  0  0  0  0  0  0  0  0  0  0
   -2.1595    1.8121    0.0000 C   0  0  0  0  0  0  0  0  0  0  0  0
   -0.4895    2.7762    0.0000 C   0  0  0  0  0  0  0  0  0  0  0  0
   -1.5000    0.0000    0.0000 O   0  0  0  0  0  0  0  0  0  0  0  0
  1  2  1  0
  2  3  2  0
  3  4  1  0
  3  5  1  0
  5  6  2  0
  6  7  1  0
  7  8  1  0
  7  9  2  0
  9 10  1  0
  6 11  1  0
 11 12  1  0
 12 13  1  0
 13 14  1  0
 13 15  1  0
 13 16  1  0
  9  2  1  0
 16  5  1  0
M  END
>  <Synonyms>  (505) 
APC-100|NSC-226236

>  <Research Codes>  (505) 
APC-100|NSC-226236

>  <Phase>  (505) 
1

>  <Applicants>  (505) 
nan

>  <USAN Stem>  (505) 
nan

>  <USAN Year>  (505) 
nan

>  <USAN Stem Definition>  (505) 
nan

>  <USAN Stem Substem>  (505) 
nan

>  <First Approval>  (505) 
nan

>  <ATC Codes>  (505) 
nan

>  <Level 4 ATC Codes>  (505) 
nan

>  <Level 3 ATC Codes>  (505) 
nan

>  <Level 2 ATC Codes>  (505) 
nan

>  <Level 1 ATC Codes>  (505) 
nan

>  <Indication Class>  (505) 
nan

>  <Patent>  (505) 
nan

>  <Drug Type>  (505) 
1:Synthetic Small Molecule

>  <Passes Rule of Five>  (505) 
True

>  <First In Class>  (505) 
False

>  <Chirality>  (505) 
Achiral Molecule

>  <Prodrug>  (505) 
False

>  <Oral>  (505) 
False

>  <Parenteral>  (505) 
False

>  <Topical>  (505) 
False

>  <Black Box>  (505) 
False

>  <Availability Type>  (505) 
Unknown

>  <Withdrawn Year>  (505) 
nan

>  <Withdrawn Reason>  (505) 
nan

>  <Withdrawn Country>  (505) 
nan

>  <Withdrawn Class>  (505) 
nan

>  <SMILES>  (505) 
Cc1c(C)c2c(c(C)c1O)CCC(C)(C)O2

>  <InChi Key>  (505) 
SEBPXHSZHLFWRL-UHFFFAOYSA-N

$$$$
CHEMBL4300557
     RDKit          2D

 41 43  0  0  0  0  0  0  0  0999 V2000
    3.7500   -1.2990    0.0000 C   0  0  0  0  0  0  0  0  0  0  0  0
    3.0000    0.0000    0.0000 C   0  0  0  0  0  0  0  0  0  0  0  0
    1.5000    0.0000    0.0000 C   0  0  0  0  0  0  0  0  0  0  0  0
    0.7500   -1.2990    0.0000 C   0  0  0  0  0  0  0  0  0  0  0  0
    1.5000   -2.5981    0.0000 O   0  0  0  0  0  0  0  0  0  0  0  0
   -0.7500   -1.2990    0.0000 C   0  0  0  0  0  0  0  0  0  0  0  0
   -1.5000    0.0000    0.0000 C   0  0  0  0  0  0  0  0  0  0  0  0
   -3.0000    0.0000    0.0000 O   0  0  0  0  0  0  0  0  0  0  0  0
   -0.7500    1.2990    0.0000 C   0  0  0  0  0  0  0  0  0  0  0  0
   -1.5000    2.5981    0.0000 C   0  0  0  0  0  0  0  0  0  0  0  0
   -3.0000    2.5981    0.0000 O   0  0  0  0  0  0  0  0  0  0  0  0
   -0.7500    3.8971    0.0000 C   0  0  0  0  0  0  0  0  0  0  0  0
    0.7500    3.8971    0.0000 C   0  0  0  0  0  0  0  0  0  0  0  0
    1.5000    5.1962    0.0000 C   0  0  0  0  0  0  0  0  0  0  0  0
    0.7500    6.4952    0.0000 C   0  0  0  0  0  0  0  0  0  0  0  0
    1.5000    7.7942    0.0000 O   0  0  0  0  0  0  0  0  0  0  0  0
    3.0000    7.7942    0.0000 C   0  0  0  0  0  0  0  0  0  0  0  0
    3.7500    9.0933    0.0000 C   0  0  0  0  0  0  0  0  0  0  0  0
    5.2500    9.0933    0.0000 N   0  0  0  0  0  0  0  0  0  0  0  0
    6.0000    7.7942    0.0000 C   0  0  0  0  0  0  0  0  0  0  0  0
    7.5000    7.7942    0.0000 C   0  0  0  0  0  0  0  0  0  0  0  0
    8.2500    9.0933    0.0000 O   0  0  0  0  0  0  0  0  0  0  0  0
    7.5000   10.3923    0.0000 C   0  0  0  0  0  0  0  0  0  0  0  0
    6.0000   10.3923    0.0000 C   0  0  0  0  0  0  0  0  0  0  0  0
   -0.7500    6.4952    0.0000 C   0  0  0  0  0  0  0  0  0  0  0  0
   -1.5000    7.7942    0.0000 O   0  0  0  0  0  0  0  0  0  0  0  0
   -3.0000    7.7942    0.0000 C   0  0  0  0  0  0  0  0  0  0  0  0
   -1.5000    5.1962    0.0000 C   0  0  0  0  0  0  0  0  0  0  0  0
    0.7500    1.2990    0.0000 C   0  0  0  0  0  0  0  0  0  0  0  0
    1.5000    2.5981    0.0000 C   0  0  0  0  0  0  0  0  0  0  0  0
    3.0000    2.5981    0.0000 C   0  0  0  0  0  0  0  0  0  0  0  0
    3.7500    1.2990    0.0000 O   0  0  0  0  0  0  0  0  0  0  0  0
    3.7500    3.8971    0.0000 N   0  0  0  0  0  0  0  0  0  0  0  0
    5.2500    3.8971    0.0000 C   0  0  0  0  0  0  0  0  0  0  0  0
    6.0000    2.5981    0.0000 C   0  0  0  0  0  0  0  0  0  0  0  0
    7.5000    2.5981    0.0000 O   0  0  0  0  0  0  0  0  0  0  0  0
    8.2500    1.2990    0.0000 C   0  0  0  0  0  0  0  0  0  0  0  0
    3.0000    5.1962    0.0000 C   0  0  0  0  0  0  0  0  0  0  0  0
    3.7500    6.4952    0.0000 C   0  0  0  0  0  0  0  0  0  0  0  0
    5.2500    6.4952    0.0000 O   0  0  0  0  0  0  0  0  0  0  0  0
    6.0000    5.1962    0.0000 C   0  0  0  0  0  0  0  0  0  0  0  0
  1  2  1  0
  2  3  1  0
  3  4  2  0
  4  5  1  0
  4  6  1  0
  6  7  2  0
  7  8  1  0
  7  9  1  0
  9 10  1  0
 10 11  2  0
 10 12  1  0
 12 13  2  0
 13 14  1  0
 14 15  2  0
 15 16  1  0
 16 17  1  0
 17 18  1  0
 18 19  1  0
 19 20  1  0
 20 21  1  0
 21 22  1  0
 22 23  1  0
 23 24  1  0
 15 25  1  0
 25 26  1  0
 26 27  1  0
 25 28  2  0
  9 29  2  0
 29 30  1  0
 30 31  1  0
 31 32  2  0
 31 33  1  0
 33 34  1  0
 34 35  1  0
 35 36  1  0
 36 37  1  0
 33 38  1  0
 38 39  1  0
 39 40  1  0
 40 41  1  0
 29  3  1  0
 28 12  1  0
 24 19  1  0
M  END
>  <Synonyms>  (506) 
nan

>  <Research Codes>  (506) 
nan

>  <Phase>  (506) 
1

>  <Applicants>  (506) 
nan

>  <USAN Stem>  (506) 
nan

>  <USAN Year>  (506) 
nan

>  <USAN Stem Definition>  (506) 
nan

>  <USAN Stem Substem>  (506) 
nan

>  <First Approval>  (506) 
nan

>  <ATC Codes>  (506) 
nan

>  <Level 4 ATC Codes>  (506) 
nan

>  <Level 3 ATC Codes>  (506) 
nan

>  <Level 2 ATC Codes>  (506) 
nan

>  <Level 1 ATC Codes>  (506) 
nan

>  <Indication Class>  (506) 
nan

>  <Patent>  (506) 
nan

>  <Drug Type>  (506) 
1:Synthetic Small Molecule

>  <Passes Rule of Five>  (506) 
False

>  <First In Class>  (506) 
False

>  <Chirality>  (506) 
Achiral Molecule

>  <Prodrug>  (506) 
False

>  <Oral>  (506) 
False

>  <Parenteral>  (506) 
False

>  <Topical>  (506) 
False

>  <Black Box>  (506) 
False

>  <Availability Type>  (506) 
Unknown

>  <Withdrawn Year>  (506) 
nan

>  <Withdrawn Reason>  (506) 
nan

>  <Withdrawn Country>  (506) 
nan

>  <Withdrawn Class>  (506) 
nan

>  <SMILES>  (506) 
CCc1c(O)cc(O)c(C(=O)c2ccc(OCCN3CCOCC3)c(OC)c2)c1CC(=O)N(CCOC)CCOC

>  <InChi Key>  (506) 
VFUXSYAXEKYYMB-UHFFFAOYSA-N

$$$$
CHEMBL1835919
     RDKit          2D

 29 32  0  0  0  0  0  0  0  0999 V2000
    3.0000    0.0000    0.0000 N   0  0  0  0  0  0  0  0  0  0  0  0
    1.5000    0.0000    0.0000 C   0  0  0  0  0  0  0  0  0  0  0  0
    0.7500   -1.2990    0.0000 N   0  0  0  0  0  0  0  0  0  0  0  0
   -0.7500   -1.2990    0.0000 C   0  0  0  0  0  0  0  0  0  0  0  0
   -1.5000    0.0000    0.0000 N   0  0  0  0  0  0  0  0  0  0  0  0
   -0.7500    1.2990    0.0000 C   0  0  0  0  0  0  0  0  0  0  0  0
    0.7500    1.2990    0.0000 C   0  0  0  0  0  0  0  0  0  0  0  0
    1.6852    2.4718    0.0000 C   0  0  0  0  0  0  0  0  0  0  0  0
    3.1476    2.1380    0.0000 O   0  0  0  0  0  0  0  0  0  0  0  0
    1.3515    3.9342    0.0000 N   0  0  0  0  0  0  0  0  0  0  0  0
    2.5242    4.8694    0.0000 C   0  0  0  0  0  0  0  0  0  0  0  0
    3.9205    4.3214    0.0000 C   0  0  0  0  0  0  0  0  0  0  0  0
    5.0933    5.2566    0.0000 C   0  0  0  0  0  0  0  0  0  0  0  0
    4.8697    6.7399    0.0000 C   0  0  0  0  0  0  0  0  0  0  0  0
    6.0424    7.6751    0.0000 C   0  0  0  0  0  0  0  0  0  0  0  0
    7.4388    7.1271    0.0000 C   0  0  0  0  0  0  0  0  0  0  0  0
    8.6115    8.0623    0.0000 C   0  0  0  0  0  0  0  0  0  0  0  0
    8.3879    9.5456    0.0000 C   0  0  0  0  0  0  0  0  0  0  0  0
    9.5607   10.4808    0.0000 C   0  0  0  0  0  0  0  0  0  0  0  0
   10.9570    9.9328    0.0000 C   0  0  0  0  0  0  0  0  0  0  0  0
   11.1806    8.4496    0.0000 O   0  0  0  0  0  0  0  0  0  0  0  0
   12.1297   10.8680    0.0000 O   0  0  0  0  0  0  0  0  0  0  0  0
    6.9916   10.0936    0.0000 C   0  0  0  0  0  0  0  0  0  0  0  0
    5.8189    9.1584    0.0000 C   0  0  0  0  0  0  0  0  0  0  0  0
    3.4734    7.2879    0.0000 C   0  0  0  0  0  0  0  0  0  0  0  0
    2.3006    6.3527    0.0000 C   0  0  0  0  0  0  0  0  0  0  0  0
   -0.0000    4.5850    0.0000 C   0  0  0  0  0  0  0  0  0  0  0  0
   -1.3515    3.9342    0.0000 C   0  0  0  0  0  0  0  0  0  0  0  0
   -1.6852    2.4718    0.0000 O   0  0  0  0  0  0  0  0  0  0  0  0
  1  2  2  0
  2  3  1  0
  3  4  1  0
  4  5  2  0
  5  6  1  0
  6  7  2  0
  7  8  1  0
  8  9  2  0
  8 10  1  0
 10 11  1  0
 11 12  2  0
 12 13  1  0
 13 14  2  0
 15 14  1  6
 15 16  1  0
 16 17  1  0
 17 18  1  0
 18 19  1  1
 19 20  1  0
 20 21  2  0
 20 22  1  0
 18 23  1  0
 23 24  1  0
 14 25  1  0
 25 26  2  0
 10 27  1  0
 27 28  1  0
 28 29  1  0
  7  2  1  0
 26 11  1  0
 29  6  1  0
 24 15  1  0
M  END
>  <Synonyms>  (507) 
PF-04620110|PF-4620110

>  <Research Codes>  (507) 
PF-04620110|PF-4620110

>  <Phase>  (507) 
1

>  <Applicants>  (507) 
nan

>  <USAN Stem>  (507) 
nan

>  <USAN Year>  (507) 
nan

>  <USAN Stem Definition>  (507) 
nan

>  <USAN Stem Substem>  (507) 
nan

>  <First Approval>  (507) 
nan

>  <ATC Codes>  (507) 
nan

>  <Level 4 ATC Codes>  (507) 
nan

>  <Level 3 ATC Codes>  (507) 
nan

>  <Level 2 ATC Codes>  (507) 
nan

>  <Level 1 ATC Codes>  (507) 
nan

>  <Indication Class>  (507) 
nan

>  <Patent>  (507) 
nan

>  <Drug Type>  (507) 
1:Synthetic Small Molecule

>  <Passes Rule of Five>  (507) 
True

>  <First In Class>  (507) 
False

>  <Chirality>  (507) 
Achiral Molecule

>  <Prodrug>  (507) 
False

>  <Oral>  (507) 
False

>  <Parenteral>  (507) 
False

>  <Topical>  (507) 
False

>  <Black Box>  (507) 
False

>  <Availability Type>  (507) 
Unknown

>  <Withdrawn Year>  (507) 
nan

>  <Withdrawn Reason>  (507) 
nan

>  <Withdrawn Country>  (507) 
nan

>  <Withdrawn Class>  (507) 
nan

>  <SMILES>  (507) 
Nc1ncnc2c1C(=O)N(c1ccc([C@H]3CC[C@H](CC(=O)O)CC3)cc1)CCO2

>  <InChi Key>  (507) 
GEVVQZHMFVFGLN-HDJSIYSDSA-N

$$$$
CHEMBL260933
     RDKit          2D

 32 35  0  0  0  0  0  0  0  0999 V2000
    1.6418    7.0824    0.0000 C   0  0  0  0  0  0  0  0  0  0  0  0
    1.3299    5.6152    0.0000 C   0  0  0  0  0  0  0  0  0  0  0  0
   -0.0967    5.1517    0.0000 C   0  0  0  0  0  0  0  0  0  0  0  0
   -0.4086    3.6844    0.0000 N   0  0  0  0  0  0  0  0  0  0  0  0
    0.7062    2.6807    0.0000 C   0  0  0  0  0  0  0  0  0  0  0  0
    2.1328    3.1443    0.0000 O   0  0  0  0  0  0  0  0  0  0  0  0
    0.3943    1.2135    0.0000 C   0  0  0  0  0  0  0  0  0  0  0  0
    1.2760    0.0000    0.0000 N   0  0  0  0  0  0  0  0  0  0  0  0
    0.3943   -1.2135    0.0000 C   0  0  0  0  0  0  0  0  0  0  0  0
    0.8578   -2.6401    0.0000 C   0  0  0  0  0  0  0  0  0  0  0  0
    2.2844   -3.1036    0.0000 C   0  0  0  0  0  0  0  0  0  0  0  0
    2.2844   -4.6036    0.0000 N   0  0  0  0  0  0  0  0  0  0  0  0
    0.8578   -5.0672    0.0000 N   0  0  0  0  0  0  0  0  0  0  0  0
    0.3943   -6.4937    0.0000 C   0  0  0  0  0  0  0  0  0  0  0  0
   -1.0729   -6.8056    0.0000 C   0  0  0  0  0  0  0  0  0  0  0  0
   -2.0766   -5.6909    0.0000 C   0  0  0  0  0  0  0  0  0  0  0  0
   -3.5438   -6.0028    0.0000 C   0  0  0  0  0  0  0  0  0  0  0  0
   -4.0074   -7.4293    0.0000 C   0  0  0  0  0  0  0  0  0  0  0  0
   -3.0037   -8.5441    0.0000 C   0  0  0  0  0  0  0  0  0  0  0  0
   -3.4672   -9.9707    0.0000 C   0  0  0  0  0  0  0  0  0  0  0  0
   -3.9307  -11.3972    0.0000 F   0  0  0  0  0  0  0  0  0  0  0  0
   -4.8938   -9.5071    0.0000 F   0  0  0  0  0  0  0  0  0  0  0  0
   -2.0406  -10.4342    0.0000 F   0  0  0  0  0  0  0  0  0  0  0  0
   -1.5364   -8.2322    0.0000 C   0  0  0  0  0  0  0  0  0  0  0  0
   -0.0239   -3.8536    0.0000 C   0  0  0  0  0  0  0  0  0  0  0  0
   -1.0323   -0.7500    0.0000 N   0  0  0  0  0  0  0  0  0  0  0  0
   -1.0323    0.7500    0.0000 C   0  0  0  0  0  0  0  0  0  0  0  0
   -2.1470    1.7537    0.0000 N   0  0  0  0  0  0  0  0  0  0  0  0
   -3.5736    1.2902    0.0000 C   0  0  0  0  0  0  0  0  0  0  0  0
   -4.6883    2.2939    0.0000 C   0  0  0  0  0  0  0  0  0  0  0  0
   -1.8351    3.2209    0.0000 C   0  0  0  0  0  0  0  0  0  0  0  0
   -2.9499    4.2246    0.0000 O   0  0  0  0  0  0  0  0  0  0  0  0
  1  2  1  0
  2  3  1  0
  3  4  1  0
  4  5  1  0
  5  6  2  0
  5  7  1  0
  7  8  1  0
  8  9  1  0
  9 10  1  0
 10 11  1  0
 11 12  2  0
 12 13  1  0
 13 14  1  0
 14 15  1  0
 15 16  2  0
 16 17  1  0
 17 18  2  0
 18 19  1  0
 19 20  1  0
 20 21  1  0
 20 22  1  0
 20 23  1  0
 19 24  2  0
 13 25  1  0
  9 26  2  0
 26 27  1  0
 27 28  1  0
 28 29  1  0
 29 30  1  0
 28 31  1  0
 31 32  2  0
 31  4  1  0
 27  7  2  0
 25 10  2  0
 24 15  1  0
M  END
>  <Synonyms>  (508) 
CVT-6883|GS 6201

>  <Research Codes>  (508) 
CVT-6883

>  <Phase>  (508) 
1

>  <Applicants>  (508) 
nan

>  <USAN Stem>  (508) 
nan

>  <USAN Year>  (508) 
nan

>  <USAN Stem Definition>  (508) 
nan

>  <USAN Stem Substem>  (508) 
nan

>  <First Approval>  (508) 
nan

>  <ATC Codes>  (508) 
nan

>  <Level 4 ATC Codes>  (508) 
nan

>  <Level 3 ATC Codes>  (508) 
nan

>  <Level 2 ATC Codes>  (508) 
nan

>  <Level 1 ATC Codes>  (508) 
nan

>  <Indication Class>  (508) 
nan

>  <Patent>  (508) 
nan

>  <Drug Type>  (508) 
7:Natural Product-derived

>  <Passes Rule of Five>  (508) 
True

>  <First In Class>  (508) 
False

>  <Chirality>  (508) 
Achiral Molecule

>  <Prodrug>  (508) 
False

>  <Oral>  (508) 
False

>  <Parenteral>  (508) 
False

>  <Topical>  (508) 
False

>  <Black Box>  (508) 
False

>  <Availability Type>  (508) 
Unknown

>  <Withdrawn Year>  (508) 
nan

>  <Withdrawn Reason>  (508) 
nan

>  <Withdrawn Country>  (508) 
nan

>  <Withdrawn Class>  (508) 
nan

>  <SMILES>  (508) 
CCCn1c(=O)c2[nH]c(-c3cnn(Cc4cccc(C(F)(F)F)c4)c3)nc2n(CC)c1=O

>  <InChi Key>  (508) 
KOYXXLLNCXWUNF-UHFFFAOYSA-N

$$$$
CHEMBL389507
     RDKit          2D

 17 18  0  0  0  0  0  0  0  0999 V2000
   -0.7500   -3.8971    0.0000 O   0  0  0  0  0  0  0  0  0  0  0  0
    0.7500   -3.8971    0.0000 C   0  0  0  0  0  0  0  0  0  0  0  0
    1.5000   -2.5981    0.0000 N   0  0  0  0  0  0  0  0  0  0  0  0
    0.7500   -1.2990    0.0000 C   0  0  0  0  0  0  0  0  0  0  0  0
    1.5000    0.0000    0.0000 C   0  0  0  0  0  0  0  0  0  0  0  0
    0.7500    1.2990    0.0000 C   0  0  0  0  0  0  0  0  0  0  0  0
   -0.7500    1.2990    0.0000 C   0  0  0  0  0  0  0  0  0  0  0  0
   -1.5000    2.5981    0.0000 O   0  0  0  0  0  0  0  0  0  0  0  0
   -1.5000    0.0000    0.0000 C   0  0  0  0  0  0  0  0  0  0  0  0
   -0.7500   -1.2990    0.0000 C   0  0  0  0  0  0  0  0  0  0  0  0
    1.5000   -5.1962    0.0000 C   0  0  0  0  0  0  0  0  0  0  0  0
    0.7500   -6.4952    0.0000 C   0  0  0  0  0  0  0  0  0  0  0  0
    1.5000   -7.7942    0.0000 C   0  0  0  0  0  0  0  0  0  0  0  0
    3.0000   -7.7942    0.0000 C   0  0  0  0  0  0  0  0  0  0  0  0
    3.7500   -6.4952    0.0000 C   0  0  0  0  0  0  0  0  0  0  0  0
    3.0000   -5.1962    0.0000 C   0  0  0  0  0  0  0  0  0  0  0  0
    3.7500   -3.8971    0.0000 O   0  0  0  0  0  0  0  0  0  0  0  0
  1  2  2  0
  2  3  1  0
  3  4  1  0
  4  5  2  0
  5  6  1  0
  6  7  2  0
  7  8  1  0
  7  9  1  0
  9 10  2  0
  2 11  1  0
 11 12  2  0
 12 13  1  0
 13 14  2  0
 14 15  1  0
 15 16  2  0
 16 17  1  0
 10  4  1  0
 16 11  1  0
M  END
>  <Synonyms>  (509) 
L-1718|NSC-93960|OSALMID

>  <Research Codes>  (509) 
L-1718|NSC-93960

>  <Phase>  (509) 
1

>  <Applicants>  (509) 
nan

>  <USAN Stem>  (509) 
'-sal-'

>  <USAN Year>  (509) 
nan

>  <USAN Stem Definition>  (509) 
anti-inflammatory agents (salicylic acid derivatives)

>  <USAN Stem Substem>  (509) 
'-sal-(-sal-)'

>  <First Approval>  (509) 
nan

>  <ATC Codes>  (509) 
nan

>  <Level 4 ATC Codes>  (509) 
nan

>  <Level 3 ATC Codes>  (509) 
nan

>  <Level 2 ATC Codes>  (509) 
nan

>  <Level 1 ATC Codes>  (509) 
nan

>  <Indication Class>  (509) 
nan

>  <Patent>  (509) 
nan

>  <Drug Type>  (509) 
1:Synthetic Small Molecule

>  <Passes Rule of Five>  (509) 
True

>  <First In Class>  (509) 
False

>  <Chirality>  (509) 
Achiral Molecule

>  <Prodrug>  (509) 
False

>  <Oral>  (509) 
False

>  <Parenteral>  (509) 
False

>  <Topical>  (509) 
False

>  <Black Box>  (509) 
False

>  <Availability Type>  (509) 
Unknown

>  <Withdrawn Year>  (509) 
nan

>  <Withdrawn Reason>  (509) 
nan

>  <Withdrawn Country>  (509) 
nan

>  <Withdrawn Class>  (509) 
nan

>  <SMILES>  (509) 
O=C(Nc1ccc(O)cc1)c1ccccc1O

>  <InChi Key>  (509) 
LGCMKPRGGJRYGM-UHFFFAOYSA-N

$$$$
CHEMBL2331680
     RDKit          2D

 33 37  0  0  0  0  0  0  0  0999 V2000
   -8.2500  -11.6913    0.0000 C   0  0  0  0  0  0  0  0  0  0  0  0
   -7.5000  -10.3923    0.0000 C   0  0  0  0  0  0  0  0  0  0  0  0
   -6.0000  -10.3923    0.0000 N   0  0  0  0  0  0  0  0  0  0  0  0
   -5.2500   -9.0933    0.0000 C   0  0  0  0  0  0  0  0  0  0  0  0
   -6.0000   -7.7942    0.0000 O   0  0  0  0  0  0  0  0  0  0  0  0
   -3.7500   -9.0933    0.0000 N   0  0  0  0  0  0  0  0  0  0  0  0
   -3.0000   -7.7942    0.0000 C   0  0  0  0  0  0  0  0  0  0  0  0
   -3.7500   -6.4952    0.0000 C   0  0  0  0  0  0  0  0  0  0  0  0
   -3.0000   -5.1962    0.0000 C   0  0  0  0  0  0  0  0  0  0  0  0
   -1.5000   -5.1962    0.0000 C   0  0  0  0  0  0  0  0  0  0  0  0
   -0.7500   -3.8971    0.0000 C   0  0  0  0  0  0  0  0  0  0  0  0
   -1.5000   -2.5981    0.0000 N   0  0  0  0  0  0  0  0  0  0  0  0
   -0.7500   -1.2990    0.0000 C   0  0  0  0  0  0  0  0  0  0  0  0
    0.7500   -1.2990    0.0000 C   0  0  0  0  0  0  0  0  0  0  0  0
    1.5000   -2.5981    0.0000 C   0  0  0  0  0  0  0  0  0  0  0  0
    3.0000   -2.5981    0.0000 N   0  0  0  0  0  0  0  0  0  0  0  0
    3.7500   -3.8971    0.0000 C   0  0  0  0  0  0  0  0  0  0  0  0
    5.2500   -3.8971    0.0000 C   0  0  0  0  0  0  0  0  0  0  0  0
    6.0000   -2.5981    0.0000 O   0  0  0  0  0  0  0  0  0  0  0  0
    5.2500   -1.2990    0.0000 C   0  0  0  0  0  0  0  0  0  0  0  0
    3.7500   -1.2990    0.0000 C   0  0  0  0  0  0  0  0  0  0  0  0
    3.0000   -0.0000    0.0000 C   0  0  0  0  0  0  0  0  0  0  0  0
    0.7500   -3.8971    0.0000 N   0  0  0  0  0  0  0  0  0  0  0  0
    1.5000    0.0000    0.0000 C   0  0  0  0  0  0  0  0  0  0  0  0
    0.7500    1.2990    0.0000 C   0  0  0  0  0  0  0  0  0  0  0  0
   -0.7500    1.2990    0.0000 N   0  0  0  0  0  0  0  0  0  0  0  0
   -1.5000    2.5981    0.0000 C   0  0  0  0  0  0  0  0  0  0  0  0
   -1.1118    4.0470    0.0000 C   0  0  0  0  0  0  0  0  0  0  0  0
   -2.5607    4.4352    0.0000 O   0  0  0  0  0  0  0  0  0  0  0  0
   -2.9489    2.9863    0.0000 C   0  0  0  0  0  0  0  0  0  0  0  0
   -1.5000    0.0000    0.0000 C   0  0  0  0  0  0  0  0  0  0  0  0
   -0.7500   -6.4952    0.0000 C   0  0  0  0  0  0  0  0  0  0  0  0
   -1.5000   -7.7942    0.0000 C   0  0  0  0  0  0  0  0  0  0  0  0
  1  2  1  0
  2  3  1  0
  3  4  1  0
  4  5  2  0
  4  6  1  0
  6  7  1  0
  7  8  2  0
  8  9  1  0
  9 10  2  0
 10 11  1  0
 11 12  2  0
 12 13  1  0
 13 14  2  0
 14 15  1  0
 15 16  1  0
 16 17  1  0
 17 18  1  0
 18 19  1  0
 19 20  1  0
 20 21  1  0
 21 22  1  1
 15 23  2  0
 14 24  1  0
 24 25  1  0
 25 26  1  0
 26 27  1  0
 27 28  1  0
 28 29  1  0
 29 30  1  0
 26 31  1  0
 10 32  1  0
 32 33  2  0
 33  7  1  0
 23 11  1  0
 30 27  1  0
 31 13  1  0
 21 16  1  0
M  END
>  <Synonyms>  (510) 
GDC-0349|RG-7603

>  <Research Codes>  (510) 
GDC-0349

>  <Phase>  (510) 
1

>  <Applicants>  (510) 
nan

>  <USAN Stem>  (510) 
nan

>  <USAN Year>  (510) 
nan

>  <USAN Stem Definition>  (510) 
nan

>  <USAN Stem Substem>  (510) 
nan

>  <First Approval>  (510) 
nan

>  <ATC Codes>  (510) 
nan

>  <Level 4 ATC Codes>  (510) 
nan

>  <Level 3 ATC Codes>  (510) 
nan

>  <Level 2 ATC Codes>  (510) 
nan

>  <Level 1 ATC Codes>  (510) 
nan

>  <Indication Class>  (510) 
nan

>  <Patent>  (510) 
nan

>  <Drug Type>  (510) 
1:Synthetic Small Molecule

>  <Passes Rule of Five>  (510) 
True

>  <First In Class>  (510) 
False

>  <Chirality>  (510) 
Single Stereoisomer

>  <Prodrug>  (510) 
False

>  <Oral>  (510) 
False

>  <Parenteral>  (510) 
False

>  <Topical>  (510) 
False

>  <Black Box>  (510) 
False

>  <Availability Type>  (510) 
Unknown

>  <Withdrawn Year>  (510) 
nan

>  <Withdrawn Reason>  (510) 
nan

>  <Withdrawn Country>  (510) 
nan

>  <Withdrawn Class>  (510) 
nan

>  <SMILES>  (510) 
CCNC(=O)Nc1ccc(-c2nc3c(c(N4CCOC[C@@H]4C)n2)CCN(C2COC2)C3)cc1

>  <InChi Key>  (510) 
RGJOJUGRHPQXGF-INIZCTEOSA-N

$$$$
CHEMBL3260567
     RDKit          2D

 30 34  0  0  0  0  0  0  0  0999 V2000
   -3.8739   -1.2549    0.0000 C   0  0  0  0  0  0  0  0  0  0  0  0
   -4.7556   -0.0414    0.0000 C   0  0  0  0  0  0  0  0  0  0  0  0
   -6.2474   -0.1982    0.0000 C   0  0  0  0  0  0  0  0  0  0  0  0
   -7.1291    1.0153    0.0000 C   0  0  0  0  0  0  0  0  0  0  0  0
   -6.5190    2.3856    0.0000 C   0  0  0  0  0  0  0  0  0  0  0  0
   -5.0272    2.5424    0.0000 C   0  0  0  0  0  0  0  0  0  0  0  0
   -4.4171    3.9127    0.0000 C   0  0  0  0  0  0  0  0  0  0  0  0
   -5.1671    5.2118    0.0000 N   0  0  0  0  0  0  0  0  0  0  0  0
   -4.1634    6.3265    0.0000 C   0  0  0  0  0  0  0  0  0  0  0  0
   -4.4752    7.7937    0.0000 C   0  0  0  0  0  0  0  0  0  0  0  0
   -3.3605    8.7974    0.0000 N   0  0  0  0  0  0  0  0  0  0  0  0
   -3.6724   10.2646    0.0000 C   0  0  0  0  0  0  0  0  0  0  0  0
   -2.5577   11.2683    0.0000 C   0  0  0  0  0  0  0  0  0  0  0  0
   -2.8695   12.7356    0.0000 C   0  0  0  0  0  0  0  0  0  0  0  0
   -4.2961   13.1991    0.0000 C   0  0  0  0  0  0  0  0  0  0  0  0
   -5.4108   12.1954    0.0000 C   0  0  0  0  0  0  0  0  0  0  0  0
   -5.0990   10.7282    0.0000 C   0  0  0  0  0  0  0  0  0  0  0  0
   -6.2137    9.7245    0.0000 F   0  0  0  0  0  0  0  0  0  0  0  0
   -2.7931    5.7164    0.0000 N   0  0  0  0  0  0  0  0  0  0  0  0
   -2.9499    4.2246    0.0000 C   0  0  0  0  0  0  0  0  0  0  0  0
   -1.8351    3.2209    0.0000 C   0  0  0  0  0  0  0  0  0  0  0  0
   -0.4086    3.6844    0.0000 C   0  0  0  0  0  0  0  0  0  0  0  0
    0.7062    2.6807    0.0000 C   0  0  0  0  0  0  0  0  0  0  0  0
    0.3943    1.2135    0.0000 C   0  0  0  0  0  0  0  0  0  0  0  0
    1.2760    0.0000    0.0000 N   0  0  0  0  0  0  0  0  0  0  0  0
    0.3943   -1.2135    0.0000 C   0  0  0  0  0  0  0  0  0  0  0  0
   -1.0323   -0.7500    0.0000 N   0  0  0  0  0  0  0  0  0  0  0  0
   -1.0323    0.7500    0.0000 N   0  0  0  0  0  0  0  0  0  0  0  0
   -2.1470    1.7537    0.0000 C   0  0  0  0  0  0  0  0  0  0  0  0
   -4.1455    1.3289    0.0000 N   0  0  0  0  0  0  0  0  0  0  0  0
  1  2  1  0
  2  3  2  0
  3  4  1  0
  4  5  2  0
  5  6  1  0
  6  7  1  0
  7  8  1  0
  8  9  1  0
  9 10  1  0
 10 11  1  0
 11 12  1  0
 12 13  2  0
 13 14  1  0
 14 15  2  0
 15 16  1  0
 16 17  2  0
 17 18  1  0
  9 19  2  0
 19 20  1  0
 20 21  1  0
 21 22  1  0
 22 23  2  0
 23 24  1  0
 24 25  2  0
 25 26  1  0
 26 27  2  0
 27 28  1  0
 28 29  1  0
  6 30  2  0
 30  2  1  0
 20  7  2  0
 29 21  2  0
 17 12  1  0
 28 24  1  0
M  END
>  <Synonyms>  (511) 
TEW 7197|TEW-7197|VACTOSERTIB

>  <Research Codes>  (511) 
TEW-7197

>  <Phase>  (511) 
1

>  <Applicants>  (511) 
nan

>  <USAN Stem>  (511) 
'-sertib'

>  <USAN Year>  (511) 
nan

>  <USAN Stem Definition>  (511) 
serine/threonine kinase inhibitors

>  <USAN Stem Substem>  (511) 
'-sertib(-sertib)'

>  <First Approval>  (511) 
nan

>  <ATC Codes>  (511) 
nan

>  <Level 4 ATC Codes>  (511) 
nan

>  <Level 3 ATC Codes>  (511) 
nan

>  <Level 2 ATC Codes>  (511) 
nan

>  <Level 1 ATC Codes>  (511) 
nan

>  <Indication Class>  (511) 
nan

>  <Patent>  (511) 
nan

>  <Drug Type>  (511) 
1:Synthetic Small Molecule

>  <Passes Rule of Five>  (511) 
True

>  <First In Class>  (511) 
False

>  <Chirality>  (511) 
Achiral Molecule

>  <Prodrug>  (511) 
False

>  <Oral>  (511) 
False

>  <Parenteral>  (511) 
False

>  <Topical>  (511) 
False

>  <Black Box>  (511) 
False

>  <Availability Type>  (511) 
Unknown

>  <Withdrawn Year>  (511) 
nan

>  <Withdrawn Reason>  (511) 
nan

>  <Withdrawn Country>  (511) 
nan

>  <Withdrawn Class>  (511) 
nan

>  <SMILES>  (511) 
Cc1cccc(-c2[nH]c(CNc3ccccc3F)nc2-c2ccc3ncnn3c2)n1

>  <InChi Key>  (511) 
FJCDSQATIJKQKA-UHFFFAOYSA-N

$$$$
CHEMBL305686
     RDKit          2D

 18 20  0  0  0  0  0  0  0  0999 V2000
    3.0000    0.0000    0.0000 N   0  0  0  0  0  0  0  0  0  0  0  0
    1.5000    0.0000    0.0000 C   0  0  0  0  0  0  0  0  0  0  0  0
    0.7500   -1.2990    0.0000 N   0  0  0  0  0  0  0  0  0  0  0  0
   -0.7500   -1.2990    0.0000 C   0  0  0  0  0  0  0  0  0  0  0  0
   -1.5000    0.0000    0.0000 N   0  0  0  0  0  0  0  0  0  0  0  0
   -0.7500    1.2990    0.0000 C   0  0  0  0  0  0  0  0  0  0  0  0
    0.7500    1.2990    0.0000 C   0  0  0  0  0  0  0  0  0  0  0  0
    1.2135    2.7256    0.0000 N   0  0  0  0  0  0  0  0  0  0  0  0
    0.0000    3.6073    0.0000 C   0  0  0  0  0  0  0  0  0  0  0  0
   -1.2135    2.7256    0.0000 N   0  0  0  0  0  0  0  0  0  0  0  0
   -2.6401    3.1891    0.0000 C   0  0  0  0  0  0  0  0  0  0  0  0
   -3.8536    2.3075    0.0000 O   0  0  0  0  0  0  0  0  0  0  0  0
   -5.0672    3.1891    0.0000 C   0  0  0  0  0  0  0  0  0  0  0  0
   -6.4937    2.7256    0.0000 C   0  0  0  0  0  0  0  0  0  0  0  0
   -7.6085    3.7293    0.0000 O   0  0  0  0  0  0  0  0  0  0  0  0
   -4.6036    4.6157    0.0000 C   0  0  0  0  0  0  0  0  0  0  0  0
   -3.1036    4.6157    0.0000 C   0  0  0  0  0  0  0  0  0  0  0  0
   -2.2220    5.8293    0.0000 O   0  0  0  0  0  0  0  0  0  0  0  0
  1  2  2  0
  2  3  1  0
  3  4  1  0
  4  5  2  0
  5  6  1  0
  6  7  2  0
  7  8  1  0
  8  9  2  0
  9 10  1  0
 11 10  1  6
 11 12  1  0
 12 13  1  0
 13 14  1  6
 14 15  1  0
 13 16  1  0
 16 17  1  0
 17 18  1  1
  7  2  1  0
 17 11  1  0
 10  6  1  0
M  END
>  <Synonyms>  (512) 
3'-Deoxyadenosine|CORDYCEPIN|NSC-401022|NSC-63984

>  <Research Codes>  (512) 
NSC-401022|NSC-63984

>  <Phase>  (512) 
1

>  <Applicants>  (512) 
nan

>  <USAN Stem>  (512) 
'-pin'

>  <USAN Year>  (512) 
nan

>  <USAN Stem Definition>  (512) 
tricyclic compounds

>  <USAN Stem Substem>  (512) 
'-pin(-pin)'

>  <First Approval>  (512) 
nan

>  <ATC Codes>  (512) 
nan

>  <Level 4 ATC Codes>  (512) 
nan

>  <Level 3 ATC Codes>  (512) 
nan

>  <Level 2 ATC Codes>  (512) 
nan

>  <Level 1 ATC Codes>  (512) 
nan

>  <Indication Class>  (512) 
nan

>  <Patent>  (512) 
nan

>  <Drug Type>  (512) 
7:Natural Product-derived

>  <Passes Rule of Five>  (512) 
True

>  <First In Class>  (512) 
False

>  <Chirality>  (512) 
Single Stereoisomer

>  <Prodrug>  (512) 
False

>  <Oral>  (512) 
False

>  <Parenteral>  (512) 
False

>  <Topical>  (512) 
False

>  <Black Box>  (512) 
False

>  <Availability Type>  (512) 
Unknown

>  <Withdrawn Year>  (512) 
nan

>  <Withdrawn Reason>  (512) 
nan

>  <Withdrawn Country>  (512) 
nan

>  <Withdrawn Class>  (512) 
nan

>  <SMILES>  (512) 
Nc1ncnc2c1ncn2[C@@H]1O[C@H](CO)C[C@H]1O

>  <InChi Key>  (512) 
OFEZSBMBBKLLBJ-BAJZRUMYSA-N

$$$$
CHEMBL3264610
     RDKit          2D

 28 30  0  0  0  0  0  0  0  0999 V2000
    3.7500   -3.8971    0.0000 C   0  0  0  0  0  0  0  0  0  0  0  0
    2.2500   -3.8971    0.0000 C   0  0  0  0  0  0  0  0  0  0  0  0
    1.5000   -5.1962    0.0000 C   0  0  0  0  0  0  0  0  0  0  0  0
    1.5000   -2.5981    0.0000 C   0  0  0  0  0  0  0  0  0  0  0  0
    0.2010   -3.3481    0.0000 O   0  0  0  0  0  0  0  0  0  0  0  0
    0.7500   -1.2990    0.0000 C   0  0  0  0  0  0  0  0  0  0  0  0
    1.5000    0.0000    0.0000 C   0  0  0  0  0  0  0  0  0  0  0  0
    0.7500    1.2990    0.0000 C   0  0  0  0  0  0  0  0  0  0  0  0
   -0.7500    1.2990    0.0000 C   0  0  0  0  0  0  0  0  0  0  0  0
   -1.5000    2.5981    0.0000 C   0  0  0  0  0  0  0  0  0  0  0  0
   -3.0000    2.5981    0.0000 C   0  0  0  0  0  0  0  0  0  0  0  0
   -3.7500    3.8971    0.0000 O   0  0  0  0  0  0  0  0  0  0  0  0
   -3.0000    5.1962    0.0000 C   0  0  0  0  0  0  0  0  0  0  0  0
   -3.7500    6.4952    0.0000 F   0  0  0  0  0  0  0  0  0  0  0  0
   -1.5000    5.1962    0.0000 F   0  0  0  0  0  0  0  0  0  0  0  0
   -3.7500    1.2990    0.0000 C   0  0  0  0  0  0  0  0  0  0  0  0
   -5.2500    1.2990    0.0000 O   0  0  0  0  0  0  0  0  0  0  0  0
   -6.0000    0.0000    0.0000 C   0  0  0  0  0  0  0  0  0  0  0  0
   -7.5000    0.0000    0.0000 F   0  0  0  0  0  0  0  0  0  0  0  0
   -5.2500   -1.2990    0.0000 F   0  0  0  0  0  0  0  0  0  0  0  0
   -3.0000    0.0000    0.0000 C   0  0  0  0  0  0  0  0  0  0  0  0
   -1.5000    0.0000    0.0000 C   0  0  0  0  0  0  0  0  0  0  0  0
   -0.7500   -1.2990    0.0000 C   0  0  0  0  0  0  0  0  0  0  0  0
    2.7990   -1.8481    0.0000 C   0  0  0  0  0  0  0  0  0  0  0  0
    2.9558   -0.3563    0.0000 C   0  0  0  0  0  0  0  0  0  0  0  0
    4.4231   -0.0444    0.0000 N   0  0  0  0  0  0  0  0  0  0  0  0
    5.1731   -1.3435    0.0000 N   0  0  0  0  0  0  0  0  0  0  0  0
    4.1694   -2.4582    0.0000 N   0  0  0  0  0  0  0  0  0  0  0  0
  1  2  1  0
  2  3  1  0
  2  4  1  0
  4  5  1  1
  4  6  1  0
  6  7  2  0
  7  8  1  0
  8  9  2  0
  9 10  1  0
 10 11  2  0
 11 12  1  0
 12 13  1  0
 13 14  1  0
 13 15  1  0
 11 16  1  0
 16 17  1  0
 17 18  1  0
 18 19  1  0
 18 20  1  0
 16 21  2  0
 21 22  1  0
 22 23  2  0
  4 24  1  0
 24 25  2  0
 25 26  1  0
 26 27  1  0
 27 28  2  0
 23  6  1  0
 28 24  1  0
 22  9  1  0
M  END
>  <Synonyms>  (513) 
SEVITERONEL

>  <Research Codes>  (513) 
nan

>  <Phase>  (513) 
1

>  <Applicants>  (513) 
nan

>  <USAN Stem>  (513) 
'-teronel'

>  <USAN Year>  (513) 
nan

>  <USAN Stem Definition>  (513) 
non-steroid antiandrogens

>  <USAN Stem Substem>  (513) 
'-teronel(-teronel)'

>  <First Approval>  (513) 
nan

>  <ATC Codes>  (513) 
nan

>  <Level 4 ATC Codes>  (513) 
nan

>  <Level 3 ATC Codes>  (513) 
nan

>  <Level 2 ATC Codes>  (513) 
nan

>  <Level 1 ATC Codes>  (513) 
nan

>  <Indication Class>  (513) 
nan

>  <Patent>  (513) 
nan

>  <Drug Type>  (513) 
1:Synthetic Small Molecule

>  <Passes Rule of Five>  (513) 
True

>  <First In Class>  (513) 
False

>  <Chirality>  (513) 
Achiral Molecule

>  <Prodrug>  (513) 
False

>  <Oral>  (513) 
False

>  <Parenteral>  (513) 
False

>  <Topical>  (513) 
False

>  <Black Box>  (513) 
False

>  <Availability Type>  (513) 
Unknown

>  <Withdrawn Year>  (513) 
nan

>  <Withdrawn Reason>  (513) 
nan

>  <Withdrawn Country>  (513) 
nan

>  <Withdrawn Class>  (513) 
nan

>  <SMILES>  (513) 
CC(C)[C@](O)(c1ccc2cc(OC(F)F)c(OC(F)F)cc2c1)c1c[nH]nn1

>  <InChi Key>  (513) 
ZBRAJOQFSNYJMF-SFHVURJKSA-N

$$$$
CHEMBL2165615
     RDKit          2D

 32 35  0  0  0  0  0  0  0  0999 V2000
   -7.0969    9.7066    0.0000 C   0  0  0  0  0  0  0  0  0  0  0  0
   -5.9821    8.7029    0.0000 C   0  0  0  0  0  0  0  0  0  0  0  0
   -4.5556    9.1664    0.0000 C   0  0  0  0  0  0  0  0  0  0  0  0
   -3.4408    8.1628    0.0000 N   0  0  0  0  0  0  0  0  0  0  0  0
   -3.7527    6.6955    0.0000 C   0  0  0  0  0  0  0  0  0  0  0  0
   -2.6380    5.6918    0.0000 N   0  0  0  0  0  0  0  0  0  0  0  0
   -2.9499    4.2246    0.0000 C   0  0  0  0  0  0  0  0  0  0  0  0
   -4.3764    3.7611    0.0000 O   0  0  0  0  0  0  0  0  0  0  0  0
   -1.8351    3.2209    0.0000 C   0  0  0  0  0  0  0  0  0  0  0  0
   -0.4086    3.6844    0.0000 C   0  0  0  0  0  0  0  0  0  0  0  0
    0.7062    2.6807    0.0000 C   0  0  0  0  0  0  0  0  0  0  0  0
    2.1328    3.1443    0.0000 O   0  0  0  0  0  0  0  0  0  0  0  0
    2.4446    4.6115    0.0000 C   0  0  0  0  0  0  0  0  0  0  0  0
    3.8712    5.0750    0.0000 C   0  0  0  0  0  0  0  0  0  0  0  0
    4.1831    6.5422    0.0000 N   0  0  0  0  0  0  0  0  0  0  0  0
    3.0684    7.5459    0.0000 C   0  0  0  0  0  0  0  0  0  0  0  0
    3.3802    9.0132    0.0000 C   0  0  0  0  0  0  0  0  0  0  0  0
    2.2655   10.0169    0.0000 O   0  0  0  0  0  0  0  0  0  0  0  0
    4.8068    9.4767    0.0000 N   0  0  0  0  0  0  0  0  0  0  0  0
    5.1187   10.9439    0.0000 C   0  0  0  0  0  0  0  0  0  0  0  0
    5.9215    8.4730    0.0000 C   0  0  0  0  0  0  0  0  0  0  0  0
    1.6418    7.0824    0.0000 N   0  0  0  0  0  0  0  0  0  0  0  0
    1.3299    5.6152    0.0000 C   0  0  0  0  0  0  0  0  0  0  0  0
    0.3943    1.2135    0.0000 C   0  0  0  0  0  0  0  0  0  0  0  0
    1.2760    0.0000    0.0000 C   0  0  0  0  0  0  0  0  0  0  0  0
    0.3943   -1.2135    0.0000 C   0  0  0  0  0  0  0  0  0  0  0  0
    0.8578   -2.6401    0.0000 C   0  0  0  0  0  0  0  0  0  0  0  0
   -1.0323   -0.7500    0.0000 O   0  0  0  0  0  0  0  0  0  0  0  0
   -1.0323    0.7500    0.0000 C   0  0  0  0  0  0  0  0  0  0  0  0
   -2.1470    1.7537    0.0000 C   0  0  0  0  0  0  0  0  0  0  0  0
   -5.1793    6.2320    0.0000 C   0  0  0  0  0  0  0  0  0  0  0  0
   -6.2940    7.2357    0.0000 N   0  0  0  0  0  0  0  0  0  0  0  0
  1  2  1  0
  2  3  2  0
  3  4  1  0
  4  5  1  0
  5  6  2  3
  6  7  1  0
  7  8  2  0
  7  9  1  0
  9 10  2  0
 10 11  1  0
 11 12  1  0
 12 13  1  0
 13 14  2  0
 14 15  1  0
 15 16  2  0
 16 17  1  0
 17 18  2  0
 17 19  1  0
 19 20  1  0
 19 21  1  0
 16 22  1  0
 22 23  2  0
 11 24  2  0
 24 25  1  0
 25 26  2  0
 26 27  1  0
 26 28  1  0
 28 29  1  0
 29 30  2  0
  5 31  1  0
 31 32  2  0
 32  2  1  0
 30  9  1  0
 23 13  1  0
 29 24  1  0
M  END
>  <Synonyms>  (514) 
PF-04937319

>  <Research Codes>  (514) 
PF-04937319

>  <Phase>  (514) 
1

>  <Applicants>  (514) 
nan

>  <USAN Stem>  (514) 
nan

>  <USAN Year>  (514) 
nan

>  <USAN Stem Definition>  (514) 
nan

>  <USAN Stem Substem>  (514) 
nan

>  <First Approval>  (514) 
nan

>  <ATC Codes>  (514) 
nan

>  <Level 4 ATC Codes>  (514) 
nan

>  <Level 3 ATC Codes>  (514) 
nan

>  <Level 2 ATC Codes>  (514) 
nan

>  <Level 1 ATC Codes>  (514) 
nan

>  <Indication Class>  (514) 
nan

>  <Patent>  (514) 
nan

>  <Drug Type>  (514) 
1:Synthetic Small Molecule

>  <Passes Rule of Five>  (514) 
True

>  <First In Class>  (514) 
False

>  <Chirality>  (514) 
Achiral Molecule

>  <Prodrug>  (514) 
False

>  <Oral>  (514) 
False

>  <Parenteral>  (514) 
False

>  <Topical>  (514) 
False

>  <Black Box>  (514) 
False

>  <Availability Type>  (514) 
Unknown

>  <Withdrawn Year>  (514) 
nan

>  <Withdrawn Reason>  (514) 
nan

>  <Withdrawn Country>  (514) 
nan

>  <Withdrawn Class>  (514) 
nan

>  <SMILES>  (514) 
Cc1cnc(NC(=O)c2cc(Oc3cnc(C(=O)N(C)C)nc3)c3cc(C)oc3c2)cn1

>  <InChi Key>  (514) 
MASKQITXHVYVFL-UHFFFAOYSA-N

$$$$
CHEMBL1236962
     RDKit          2D

 36 40  0  0  0  0  0  0  0  0999 V2000
    3.0000   -7.7942    0.0000 C   0  0  0  0  0  0  0  0  0  0  0  0
    3.7500   -6.4952    0.0000 O   0  0  0  0  0  0  0  0  0  0  0  0
    3.0000   -5.1962    0.0000 C   0  0  0  0  0  0  0  0  0  0  0  0
    1.5000   -5.1962    0.0000 N   0  0  0  0  0  0  0  0  0  0  0  0
    0.7500   -3.8971    0.0000 C   0  0  0  0  0  0  0  0  0  0  0  0
    1.5000   -2.5981    0.0000 C   0  0  0  0  0  0  0  0  0  0  0  0
    0.7500   -1.2990    0.0000 C   0  0  0  0  0  0  0  0  0  0  0  0
    1.5000    0.0000    0.0000 C   0  0  0  0  0  0  0  0  0  0  0  0
    0.7500    1.2990    0.0000 C   0  0  0  0  0  0  0  0  0  0  0  0
   -0.7500    1.2990    0.0000 C   0  0  0  0  0  0  0  0  0  0  0  0
   -1.5000    2.5981    0.0000 N   0  0  0  0  0  0  0  0  0  0  0  0
   -3.0000    2.5981    0.0000 C   0  0  0  0  0  0  0  0  0  0  0  0
   -3.7500    1.2990    0.0000 C   0  0  0  0  0  0  0  0  0  0  0  0
   -3.0000    0.0000    0.0000 C   0  0  0  0  0  0  0  0  0  0  0  0
   -3.7500   -1.2990    0.0000 C   0  0  0  0  0  0  0  0  0  0  0  0
   -5.2500   -1.2990    0.0000 C   0  0  0  0  0  0  0  0  0  0  0  0
   -6.0000   -2.5981    0.0000 C   0  0  0  0  0  0  0  0  0  0  0  0
   -5.2500   -3.8971    0.0000 N   0  0  0  0  0  0  0  0  0  0  0  0
   -3.7500   -3.8971    0.0000 N   0  0  0  0  0  0  0  0  0  0  0  0
   -3.0000   -2.5981    0.0000 C   0  0  0  0  0  0  0  0  0  0  0  0
   -1.5000    0.0000    0.0000 C   0  0  0  0  0  0  0  0  0  0  0  0
   -0.7500   -1.2990    0.0000 C   0  0  0  0  0  0  0  0  0  0  0  0
    3.0000   -2.5981    0.0000 C   0  0  0  0  0  0  0  0  0  0  0  0
    3.7500   -3.8971    0.0000 C   0  0  0  0  0  0  0  0  0  0  0  0
    5.2500   -3.8971    0.0000 N   0  0  0  0  0  0  0  0  0  0  0  0
    6.0000   -2.5981    0.0000 S   0  0  0  0  0  0  0  0  0  0  0  0
    4.7010   -1.8481    0.0000 O   0  0  0  0  0  0  0  0  0  0  0  0
    7.2990   -3.3481    0.0000 O   0  0  0  0  0  0  0  0  0  0  0  0
    6.7500   -1.2990    0.0000 C   0  0  0  0  0  0  0  0  0  0  0  0
    8.2500   -1.2990    0.0000 C   0  0  0  0  0  0  0  0  0  0  0  0
    9.0000   -0.0000    0.0000 C   0  0  0  0  0  0  0  0  0  0  0  0
    8.2500    1.2990    0.0000 C   0  0  0  0  0  0  0  0  0  0  0  0
    9.0000    2.5981    0.0000 F   0  0  0  0  0  0  0  0  0  0  0  0
    6.7500    1.2990    0.0000 C   0  0  0  0  0  0  0  0  0  0  0  0
    6.0000   -0.0000    0.0000 C   0  0  0  0  0  0  0  0  0  0  0  0
    4.5000   -0.0000    0.0000 F   0  0  0  0  0  0  0  0  0  0  0  0
  1  2  1  0
  2  3  1  0
  3  4  2  0
  4  5  1  0
  5  6  2  0
  6  7  1  0
  7  8  2  0
  8  9  1  0
  9 10  2  0
 10 11  1  0
 11 12  2  0
 12 13  1  0
 13 14  2  0
 14 15  1  0
 15 16  2  0
 16 17  1  0
 17 18  2  0
 18 19  1  0
 19 20  2  0
 14 21  1  0
 21 22  2  0
  6 23  1  0
 23 24  2  0
 24 25  1  0
 25 26  1  0
 26 27  2  0
 26 28  2  0
 26 29  1  0
 29 30  2  0
 30 31  1  0
 31 32  2  0
 32 33  1  0
 32 34  1  0
 34 35  2  0
 35 36  1  0
 24  3  1  0
 35 29  1  0
 22  7  1  0
 21 10  1  0
 20 15  1  0
M  END
>  <Synonyms>  (515) 
GSK-2126458|GSK2126458|OMIPALISIB

>  <Research Codes>  (515) 
GSK2126458

>  <Phase>  (515) 
1

>  <Applicants>  (515) 
nan

>  <USAN Stem>  (515) 
'-lisib'

>  <USAN Year>  (515) 
2014.0

>  <USAN Stem Definition>  (515) 
phosphatidylinositol 3-kinase inhibitors

>  <USAN Stem Substem>  (515) 
'-lisib(-lisib)'

>  <First Approval>  (515) 
nan

>  <ATC Codes>  (515) 
nan

>  <Level 4 ATC Codes>  (515) 
nan

>  <Level 3 ATC Codes>  (515) 
nan

>  <Level 2 ATC Codes>  (515) 
nan

>  <Level 1 ATC Codes>  (515) 
nan

>  <Indication Class>  (515) 
nan

>  <Patent>  (515) 
nan

>  <Drug Type>  (515) 
1:Synthetic Small Molecule

>  <Passes Rule of Five>  (515) 
False

>  <First In Class>  (515) 
False

>  <Chirality>  (515) 
Achiral Molecule

>  <Prodrug>  (515) 
False

>  <Oral>  (515) 
False

>  <Parenteral>  (515) 
False

>  <Topical>  (515) 
False

>  <Black Box>  (515) 
False

>  <Availability Type>  (515) 
Unknown

>  <Withdrawn Year>  (515) 
nan

>  <Withdrawn Reason>  (515) 
nan

>  <Withdrawn Country>  (515) 
nan

>  <Withdrawn Class>  (515) 
nan

>  <SMILES>  (515) 
COc1ncc(-c2ccc3nccc(-c4ccnnc4)c3c2)cc1NS(=O)(=O)c1ccc(F)cc1F

>  <InChi Key>  (515) 
CGBJSGAELGCMKE-UHFFFAOYSA-N

$$$$
CHEMBL1276678
     RDKit          2D

 36 38  0  0  0  0  0  0  0  0999 V2000
   -1.5000   -7.7942    0.0000 C   0  0  0  0  0  0  0  0  0  0  0  0
   -0.7500   -6.4952    0.0000 N   0  0  0  0  0  0  0  0  0  0  0  0
    0.7500   -6.4952    0.0000 C   0  0  0  0  0  0  0  0  0  0  0  0
    1.5000   -5.1962    0.0000 C   0  0  0  0  0  0  0  0  0  0  0  0
    0.7500   -3.8971    0.0000 N   0  0  0  0  0  0  0  0  0  0  0  0
    1.5000   -2.5981    0.0000 C   0  0  0  0  0  0  0  0  0  0  0  0
    3.0000   -2.5981    0.0000 O   0  0  0  0  0  0  0  0  0  0  0  0
    0.7500   -1.2990    0.0000 N   0  0  0  0  0  0  0  0  0  0  0  0
    1.5000    0.0000    0.0000 C   0  0  0  0  0  0  0  0  0  0  0  0
    0.7500    1.2990    0.0000 C   0  0  0  0  0  0  0  0  0  0  0  0
   -0.7500    1.2990    0.0000 C   0  0  0  0  0  0  0  0  0  0  0  0
   -1.5000    0.0000    0.0000 C   0  0  0  0  0  0  0  0  0  0  0  0
   -3.0000    0.0000    0.0000 C   0  0  0  0  0  0  0  0  0  0  0  0
   -3.7500   -1.2990    0.0000 O   0  0  0  0  0  0  0  0  0  0  0  0
   -5.2500   -1.2990    0.0000 C   0  0  0  0  0  0  0  0  0  0  0  0
   -6.0000   -2.5981    0.0000 C   0  0  0  0  0  0  0  0  0  0  0  0
   -7.5000   -2.5981    0.0000 N   0  0  0  0  0  0  0  0  0  0  0  0
   -8.2500   -3.8971    0.0000 C   0  0  0  0  0  0  0  0  0  0  0  0
   -7.5000   -5.1962    0.0000 O   0  0  0  0  0  0  0  0  0  0  0  0
   -9.7500   -3.8971    0.0000 O   0  0  0  0  0  0  0  0  0  0  0  0
  -10.5000   -5.1962    0.0000 C   0  0  0  0  0  0  0  0  0  0  0  0
   -3.7500    1.2990    0.0000 C   0  0  0  0  0  0  0  0  0  0  0  0
   -3.0000    2.5981    0.0000 C   0  0  0  0  0  0  0  0  0  0  0  0
   -3.7500    3.8971    0.0000 C   0  0  0  0  0  0  0  0  0  0  0  0
   -5.2500    3.8971    0.0000 C   0  0  0  0  0  0  0  0  0  0  0  0
   -6.0000    2.5981    0.0000 C   0  0  0  0  0  0  0  0  0  0  0  0
   -7.5000    2.5981    0.0000 Cl  0  0  0  0  0  0  0  0  0  0  0  0
   -5.2500    1.2990    0.0000 C   0  0  0  0  0  0  0  0  0  0  0  0
   -0.7500   -1.2990    0.0000 C   0  0  0  0  0  0  0  0  0  0  0  0
    1.5000   -7.7942    0.0000 C   0  0  0  0  0  0  0  0  0  0  0  0
    0.7500   -9.0933    0.0000 C   0  0  0  0  0  0  0  0  0  0  0  0
   -0.7500   -9.0933    0.0000 C   0  0  0  0  0  0  0  0  0  0  0  0
   -1.5000  -10.3923    0.0000 C   0  0  0  0  0  0  0  0  0  0  0  0
   -0.7500  -11.6913    0.0000 C   0  0  0  0  0  0  0  0  0  0  0  0
    0.7500  -11.6913    0.0000 O   0  0  0  0  0  0  0  0  0  0  0  0
    1.5000  -10.3923    0.0000 C   0  0  0  0  0  0  0  0  0  0  0  0
  1  2  1  0
  2  3  1  0
  3  4  1  6
  4  5  1  0
  5  6  1  0
  6  7  2  0
  6  8  1  0
  8  9  1  0
  9 10  1  0
 10 11  1  0
 12 11  1  6
 12 13  1  0
 13 14  1  1
 14 15  1  0
 15 16  1  0
 16 17  1  0
 17 18  1  0
 18 19  2  0
 18 20  1  0
 20 21  1  0
 13 22  1  0
 22 23  2  0
 23 24  1  0
 24 25  2  0
 25 26  1  0
 26 27  1  0
 26 28  2  0
 12 29  1  0
  3 30  1  0
 31 30  1  6
 31 32  1  0
 32 33  1  0
 33 34  1  0
 34 35  1  0
 35 36  1  0
 29  8  1  0
 36 31  1  0
 28 22  1  0
M  END
>  <Synonyms>  (516) 
VTP-27999

>  <Research Codes>  (516) 
nan

>  <Phase>  (516) 
1

>  <Applicants>  (516) 
nan

>  <USAN Stem>  (516) 
nan

>  <USAN Year>  (516) 
nan

>  <USAN Stem Definition>  (516) 
nan

>  <USAN Stem Substem>  (516) 
nan

>  <First Approval>  (516) 
nan

>  <ATC Codes>  (516) 
nan

>  <Level 4 ATC Codes>  (516) 
nan

>  <Level 3 ATC Codes>  (516) 
nan

>  <Level 2 ATC Codes>  (516) 
nan

>  <Level 1 ATC Codes>  (516) 
nan

>  <Indication Class>  (516) 
nan

>  <Patent>  (516) 
nan

>  <Drug Type>  (516) 
1:Synthetic Small Molecule

>  <Passes Rule of Five>  (516) 
False

>  <First In Class>  (516) 
False

>  <Chirality>  (516) 
Single Stereoisomer

>  <Prodrug>  (516) 
False

>  <Oral>  (516) 
False

>  <Parenteral>  (516) 
False

>  <Topical>  (516) 
False

>  <Black Box>  (516) 
False

>  <Availability Type>  (516) 
Unknown

>  <Withdrawn Year>  (516) 
nan

>  <Withdrawn Reason>  (516) 
nan

>  <Withdrawn Country>  (516) 
nan

>  <Withdrawn Class>  (516) 
nan

>  <SMILES>  (516) 
CN[C@H](CNC(=O)N1CCC[C@@H]([C@@H](OCCNC(=O)OC)c2cccc(Cl)c2)C1)C[C@H]1CCCOC1

>  <InChi Key>  (516) 
NXWASIVXQMMPLM-ZXMXYHOLSA-N

$$$$
CHEMBL4205422
     RDKit          2D

 29 31  0  0  0  0  0  0  0  0999 V2000
    6.0000    0.0000    0.0000 O   0  0  0  0  0  0  0  0  0  0  0  0
    5.2500   -1.2990    0.0000 C   0  0  0  0  0  0  0  0  0  0  0  0
    6.0000   -2.5981    0.0000 O   0  0  0  0  0  0  0  0  0  0  0  0
    3.7500   -1.2990    0.0000 C   0  0  0  0  0  0  0  0  0  0  0  0
    3.0000    0.0000    0.0000 C   0  0  0  0  0  0  0  0  0  0  0  0
    1.5000    0.0000    0.0000 C   0  0  0  0  0  0  0  0  0  0  0  0
    0.7500   -1.2990    0.0000 C   0  0  0  0  0  0  0  0  0  0  0  0
   -0.7500   -1.2990    0.0000 C   0  0  0  0  0  0  0  0  0  0  0  0
   -1.5000    0.0000    0.0000 C   0  0  0  0  0  0  0  0  0  0  0  0
   -2.6491   -0.9642    0.0000 C   0  0  0  0  0  0  0  0  0  0  0  0
   -4.0586   -0.4512    0.0000 C   0  0  0  0  0  0  0  0  0  0  0  0
   -5.2077   -1.4153    0.0000 C   0  0  0  0  0  0  0  0  0  0  0  0
   -6.6172   -0.9023    0.0000 F   0  0  0  0  0  0  0  0  0  0  0  0
   -4.9472   -2.8925    0.0000 C   0  0  0  0  0  0  0  0  0  0  0  0
   -3.5377   -3.4056    0.0000 C   0  0  0  0  0  0  0  0  0  0  0  0
   -2.3886   -2.4414    0.0000 C   0  0  0  0  0  0  0  0  0  0  0  0
   -0.9791   -2.9544    0.0000 F   0  0  0  0  0  0  0  0  0  0  0  0
   -2.6491    0.9642    0.0000 S   0  0  0  0  0  0  0  0  0  0  0  0
   -3.6321    0.2501    0.0000 O   0  0  0  0  0  0  0  0  0  0  0  0
   -1.6849    2.1132    0.0000 O   0  0  0  0  0  0  0  0  0  0  0  0
   -3.7981    1.9284    0.0000 C   0  0  0  0  0  0  0  0  0  0  0  0
   -3.5377    3.4056    0.0000 C   0  0  0  0  0  0  0  0  0  0  0  0
   -4.6867    4.3698    0.0000 C   0  0  0  0  0  0  0  0  0  0  0  0
   -6.0963    3.8567    0.0000 C   0  0  0  0  0  0  0  0  0  0  0  0
   -7.2453    4.8209    0.0000 Cl  0  0  0  0  0  0  0  0  0  0  0  0
   -6.3567    2.3795    0.0000 C   0  0  0  0  0  0  0  0  0  0  0  0
   -5.2077    1.4153    0.0000 C   0  0  0  0  0  0  0  0  0  0  0  0
   -0.7500    1.2990    0.0000 C   0  0  0  0  0  0  0  0  0  0  0  0
    0.7500    1.2990    0.0000 C   0  0  0  0  0  0  0  0  0  0  0  0
  1  2  2  0
  2  3  1  0
  2  4  1  0
  4  5  1  0
  6  5  1  1
  6  7  1  0
  7  8  1  0
  8  9  1  0
  9 10  1  0
 10 11  2  0
 11 12  1  0
 12 13  1  0
 12 14  2  0
 14 15  1  0
 15 16  2  0
 16 17  1  0
  9 18  1  1
 18 19  2  0
 18 20  2  0
 18 21  1  0
 21 22  2  0
 22 23  1  0
 23 24  2  0
 24 25  1  0
 24 26  1  0
 26 27  2  0
  9 28  1  0
 28 29  1  0
 29  6  1  0
 16 10  1  0
 27 21  1  0
M  END
>  <Synonyms>  (517) 
MK-0752

>  <Research Codes>  (517) 
nan

>  <Phase>  (517) 
1

>  <Applicants>  (517) 
nan

>  <USAN Stem>  (517) 
nan

>  <USAN Year>  (517) 
nan

>  <USAN Stem Definition>  (517) 
nan

>  <USAN Stem Substem>  (517) 
nan

>  <First Approval>  (517) 
nan

>  <ATC Codes>  (517) 
nan

>  <Level 4 ATC Codes>  (517) 
nan

>  <Level 3 ATC Codes>  (517) 
nan

>  <Level 2 ATC Codes>  (517) 
nan

>  <Level 1 ATC Codes>  (517) 
nan

>  <Indication Class>  (517) 
nan

>  <Patent>  (517) 
nan

>  <Drug Type>  (517) 
1:Synthetic Small Molecule

>  <Passes Rule of Five>  (517) 
False

>  <First In Class>  (517) 
False

>  <Chirality>  (517) 
Achiral Molecule

>  <Prodrug>  (517) 
False

>  <Oral>  (517) 
False

>  <Parenteral>  (517) 
False

>  <Topical>  (517) 
False

>  <Black Box>  (517) 
False

>  <Availability Type>  (517) 
Unknown

>  <Withdrawn Year>  (517) 
nan

>  <Withdrawn Reason>  (517) 
nan

>  <Withdrawn Country>  (517) 
nan

>  <Withdrawn Class>  (517) 
nan

>  <SMILES>  (517) 
O=C(O)CC[C@H]1CC[C@@](c2cc(F)ccc2F)(S(=O)(=O)c2ccc(Cl)cc2)CC1

>  <InChi Key>  (517) 
XCGJIFAKUZNNOR-QCKZDCLWSA-N

$$$$
CHEMBL1230607
     RDKit          2D

 26 28  0  0  0  0  0  0  0  0999 V2000
    7.2760   -2.5981    0.0000 C   0  0  0  0  0  0  0  0  0  0  0  0
    5.7760   -2.5981    0.0000 C   0  0  0  0  0  0  0  0  0  0  0  0
    5.0260   -3.8971    0.0000 C   0  0  0  0  0  0  0  0  0  0  0  0
    5.0260   -1.2990    0.0000 C   0  0  0  0  0  0  0  0  0  0  0  0
    3.5260   -1.2990    0.0000 C   0  0  0  0  0  0  0  0  0  0  0  0
    2.7760   -2.5981    0.0000 O   0  0  0  0  0  0  0  0  0  0  0  0
    2.7760    0.0000    0.0000 N   0  0  0  0  0  0  0  0  0  0  0  0
    1.2760    0.0000    0.0000 C   0  0  0  0  0  0  0  0  0  0  0  0
    0.3943    1.2135    0.0000 N   0  0  0  0  0  0  0  0  0  0  0  0
   -1.0323    0.7500    0.0000 N   0  0  0  0  0  0  0  0  0  0  0  0
   -1.0323   -0.7500    0.0000 C   0  0  0  0  0  0  0  0  0  0  0  0
    0.3943   -1.2135    0.0000 C   0  0  0  0  0  0  0  0  0  0  0  0
    0.3943   -2.7135    0.0000 C   0  0  0  0  0  0  0  0  0  0  0  0
   -1.0323   -3.1771    0.0000 N   0  0  0  0  0  0  0  0  0  0  0  0
   -1.4958   -4.6036    0.0000 C   0  0  0  0  0  0  0  0  0  0  0  0
   -2.9630   -4.9155    0.0000 O   0  0  0  0  0  0  0  0  0  0  0  0
   -0.4921   -5.7184    0.0000 C   0  0  0  0  0  0  0  0  0  0  0  0
   -0.9556   -7.1449    0.0000 C   0  0  0  0  0  0  0  0  0  0  0  0
    0.0481   -8.2597    0.0000 C   0  0  0  0  0  0  0  0  0  0  0  0
    1.5153   -7.9478    0.0000 N   0  0  0  0  0  0  0  0  0  0  0  0
    2.5190   -9.0625    0.0000 C   0  0  0  0  0  0  0  0  0  0  0  0
    1.9788   -6.5212    0.0000 C   0  0  0  0  0  0  0  0  0  0  0  0
    0.9751   -5.4065    0.0000 C   0  0  0  0  0  0  0  0  0  0  0  0
   -1.9140   -1.9635    0.0000 C   0  0  0  0  0  0  0  0  0  0  0  0
   -3.0287   -2.9672    0.0000 C   0  0  0  0  0  0  0  0  0  0  0  0
   -3.0287   -0.9598    0.0000 C   0  0  0  0  0  0  0  0  0  0  0  0
  1  2  1  0
  2  3  1  0
  2  4  1  0
  4  5  1  0
  5  6  2  0
  5  7  1  0
  7  8  2  3
  8  9  1  0
  9 10  1  0
 10 11  1  0
 11 12  2  0
 12 13  1  0
 13 14  1  0
 14 15  1  0
 15 16  2  0
 15 17  1  0
 17 18  1  0
 18 19  1  0
 19 20  1  0
 20 21  1  0
 20 22  1  0
 22 23  1  0
 14 24  1  0
 24 25  1  0
 24 26  1  0
 12  8  1  0
 23 17  1  0
 24 11  1  0
M  END
>  <Synonyms>  (518) 
PHA-793887

>  <Research Codes>  (518) 
PHA-793887

>  <Phase>  (518) 
1

>  <Applicants>  (518) 
nan

>  <USAN Stem>  (518) 
nan

>  <USAN Year>  (518) 
nan

>  <USAN Stem Definition>  (518) 
nan

>  <USAN Stem Substem>  (518) 
nan

>  <First Approval>  (518) 
nan

>  <ATC Codes>  (518) 
nan

>  <Level 4 ATC Codes>  (518) 
nan

>  <Level 3 ATC Codes>  (518) 
nan

>  <Level 2 ATC Codes>  (518) 
nan

>  <Level 1 ATC Codes>  (518) 
nan

>  <Indication Class>  (518) 
nan

>  <Patent>  (518) 
nan

>  <Drug Type>  (518) 
1:Synthetic Small Molecule

>  <Passes Rule of Five>  (518) 
True

>  <First In Class>  (518) 
False

>  <Chirality>  (518) 
Achiral Molecule

>  <Prodrug>  (518) 
False

>  <Oral>  (518) 
False

>  <Parenteral>  (518) 
False

>  <Topical>  (518) 
False

>  <Black Box>  (518) 
False

>  <Availability Type>  (518) 
Unknown

>  <Withdrawn Year>  (518) 
nan

>  <Withdrawn Reason>  (518) 
nan

>  <Withdrawn Country>  (518) 
nan

>  <Withdrawn Class>  (518) 
nan

>  <SMILES>  (518) 
CC(C)CC(=O)Nc1n[nH]c2c1CN(C(=O)C1CCN(C)CC1)C2(C)C

>  <InChi Key>  (518) 
HUXYBQXJVXOMKX-UHFFFAOYSA-N

$$$$
CHEMBL3286797
     RDKit          2D

 30 33  0  0  0  0  0  0  0  0999 V2000
    3.7500   -1.2990    0.0000 C   0  0  0  0  0  0  0  0  0  0  0  0
    3.0000    0.0000    0.0000 O   0  0  0  0  0  0  0  0  0  0  0  0
    1.5000    0.0000    0.0000 C   0  0  0  0  0  0  0  0  0  0  0  0
    0.7500   -1.2990    0.0000 C   0  0  0  0  0  0  0  0  0  0  0  0
   -0.7500   -1.2990    0.0000 C   0  0  0  0  0  0  0  0  0  0  0  0
   -1.5000    0.0000    0.0000 C   0  0  0  0  0  0  0  0  0  0  0  0
   -3.0000    0.0000    0.0000 C   0  0  0  0  0  0  0  0  0  0  0  0
   -3.7500    1.2990    0.0000 C   0  0  0  0  0  0  0  0  0  0  0  0
   -5.2500    1.2990    0.0000 O   0  0  0  0  0  0  0  0  0  0  0  0
   -6.0000    2.5981    0.0000 C   0  0  0  0  0  0  0  0  0  0  0  0
   -7.5000    2.5981    0.0000 C   0  0  0  0  0  0  0  0  0  0  0  0
   -7.5000    1.0981    0.0000 C   0  0  0  0  0  0  0  0  0  0  0  0
   -8.7990    0.3481    0.0000 O   0  0  0  0  0  0  0  0  0  0  0  0
   -6.2010    0.3481    0.0000 O   0  0  0  0  0  0  0  0  0  0  0  0
   -7.5000    4.0981    0.0000 C   0  0  0  0  0  0  0  0  0  0  0  0
   -9.0000    4.0981    0.0000 N   0  0  0  0  0  0  0  0  0  0  0  0
  -10.0607    5.1587    0.0000 C   0  0  0  0  0  0  0  0  0  0  0  0
  -11.5095    4.7705    0.0000 O   0  0  0  0  0  0  0  0  0  0  0  0
   -9.6724    6.6076    0.0000 C   0  0  0  0  0  0  0  0  0  0  0  0
   -8.2235    6.9959    0.0000 C   0  0  0  0  0  0  0  0  0  0  0  0
   -7.8353    8.4447    0.0000 C   0  0  0  0  0  0  0  0  0  0  0  0
   -8.8960    9.5054    0.0000 C   0  0  0  0  0  0  0  0  0  0  0  0
   -8.5077   10.9543    0.0000 F   0  0  0  0  0  0  0  0  0  0  0  0
  -10.3449    9.1172    0.0000 C   0  0  0  0  0  0  0  0  0  0  0  0
  -10.7331    7.6683    0.0000 C   0  0  0  0  0  0  0  0  0  0  0  0
   -9.0000    2.5981    0.0000 C   0  0  0  0  0  0  0  0  0  0  0  0
   -3.0000    2.5981    0.0000 C   0  0  0  0  0  0  0  0  0  0  0  0
   -1.5000    2.5981    0.0000 C   0  0  0  0  0  0  0  0  0  0  0  0
   -0.7500    1.2990    0.0000 C   0  0  0  0  0  0  0  0  0  0  0  0
    0.7500    1.2990    0.0000 C   0  0  0  0  0  0  0  0  0  0  0  0
  1  2  1  0
  2  3  1  0
  3  4  2  0
  4  5  1  0
  5  6  2  0
  6  7  1  0
  7  8  2  0
  8  9  1  0
  9 10  1  0
 10 11  1  0
 11 12  1  0
 12 13  2  0
 12 14  1  0
 11 15  1  0
 15 16  1  0
 16 17  1  0
 17 18  2  0
 17 19  1  0
 19 20  2  0
 20 21  1  0
 21 22  2  0
 22 23  1  0
 22 24  1  0
 24 25  2  0
 16 26  1  0
  8 27  1  0
 27 28  2  0
 28 29  1  0
 29 30  2  0
 30  3  1  0
 29  6  1  0
 26 11  1  0
 25 19  1  0
M  END
>  <Synonyms>  (519) 
PF-04418948

>  <Research Codes>  (519) 
nan

>  <Phase>  (519) 
1

>  <Applicants>  (519) 
nan

>  <USAN Stem>  (519) 
nan

>  <USAN Year>  (519) 
nan

>  <USAN Stem Definition>  (519) 
nan

>  <USAN Stem Substem>  (519) 
nan

>  <First Approval>  (519) 
nan

>  <ATC Codes>  (519) 
nan

>  <Level 4 ATC Codes>  (519) 
nan

>  <Level 3 ATC Codes>  (519) 
nan

>  <Level 2 ATC Codes>  (519) 
nan

>  <Level 1 ATC Codes>  (519) 
nan

>  <Indication Class>  (519) 
nan

>  <Patent>  (519) 
nan

>  <Drug Type>  (519) 
1:Synthetic Small Molecule

>  <Passes Rule of Five>  (519) 
True

>  <First In Class>  (519) 
False

>  <Chirality>  (519) 
Achiral Molecule

>  <Prodrug>  (519) 
False

>  <Oral>  (519) 
False

>  <Parenteral>  (519) 
False

>  <Topical>  (519) 
False

>  <Black Box>  (519) 
False

>  <Availability Type>  (519) 
Unknown

>  <Withdrawn Year>  (519) 
nan

>  <Withdrawn Reason>  (519) 
nan

>  <Withdrawn Country>  (519) 
nan

>  <Withdrawn Class>  (519) 
nan

>  <SMILES>  (519) 
COc1ccc2cc(OCC3(C(=O)O)CN(C(=O)c4ccc(F)cc4)C3)ccc2c1

>  <InChi Key>  (519) 
LWJGMYMNSNVCEM-UHFFFAOYSA-N

$$$$
CHEMBL3545085
     RDKit          2D

 32 36  0  0  0  0  0  0  0  0999 V2000
    4.8308   -8.9221    0.0000 C   0  0  0  0  0  0  0  0  0  0  0  0
    4.6740   -7.4303    0.0000 C   0  0  0  0  0  0  0  0  0  0  0  0
    5.8875   -6.5486    0.0000 C   0  0  0  0  0  0  0  0  0  0  0  0
    3.3037   -6.8202    0.0000 C   0  0  0  0  0  0  0  0  0  0  0  0
    2.9918   -5.3529    0.0000 C   0  0  0  0  0  0  0  0  0  0  0  0
    1.5000   -5.1962    0.0000 C   0  0  0  0  0  0  0  0  0  0  0  0
    0.7500   -3.8971    0.0000 C   0  0  0  0  0  0  0  0  0  0  0  0
    1.5000   -2.5981    0.0000 N   0  0  0  0  0  0  0  0  0  0  0  0
    0.7500   -1.2990    0.0000 C   0  0  0  0  0  0  0  0  0  0  0  0
    1.5000    0.0000    0.0000 N   0  0  0  0  0  0  0  0  0  0  0  0
    0.7500    1.2990    0.0000 C   0  0  0  0  0  0  0  0  0  0  0  0
    1.5000    2.5981    0.0000 N   0  0  0  0  0  0  0  0  0  0  0  0
    3.0000    2.5981    0.0000 C   0  0  0  0  0  0  0  0  0  0  0  0
    3.8817    3.8116    0.0000 C   0  0  0  0  0  0  0  0  0  0  0  0
    5.3083    3.3481    0.0000 C   0  0  0  0  0  0  0  0  0  0  0  0
    6.5218    4.2298    0.0000 C   0  0  0  0  0  0  0  0  0  0  0  0
    7.1319    5.6001    0.0000 C   0  0  0  0  0  0  0  0  0  0  0  0
    8.0136    4.3865    0.0000 C   0  0  0  0  0  0  0  0  0  0  0  0
    5.3083    1.8481    0.0000 N   0  0  0  0  0  0  0  0  0  0  0  0
    3.8817    1.3846    0.0000 N   0  0  0  0  0  0  0  0  0  0  0  0
   -0.7500    1.2990    0.0000 C   0  0  0  0  0  0  0  0  0  0  0  0
   -1.5000    0.0000    0.0000 C   0  0  0  0  0  0  0  0  0  0  0  0
   -3.0000    0.0000    0.0000 N   0  0  0  0  0  0  0  0  0  0  0  0
   -3.7500    1.2990    0.0000 C   0  0  0  0  0  0  0  0  0  0  0  0
   -5.2500    1.2990    0.0000 C   0  0  0  0  0  0  0  0  0  0  0  0
   -6.0000    0.0000    0.0000 N   0  0  0  0  0  0  0  0  0  0  0  0
   -7.5000    0.0000    0.0000 C   0  0  0  0  0  0  0  0  0  0  0  0
   -5.2500   -1.2990    0.0000 C   0  0  0  0  0  0  0  0  0  0  0  0
   -3.7500   -1.2990    0.0000 C   0  0  0  0  0  0  0  0  0  0  0  0
   -0.7500   -1.2990    0.0000 N   0  0  0  0  0  0  0  0  0  0  0  0
    0.8899   -6.5665    0.0000 O   0  0  0  0  0  0  0  0  0  0  0  0
    2.0046   -7.5702    0.0000 N   0  0  0  0  0  0  0  0  0  0  0  0
  1  2  1  0
  2  3  1  0
  2  4  1  0
  4  5  1  0
  5  6  2  0
  6  7  1  0
  7  8  1  0
  8  9  2  3
  9 10  1  0
 10 11  1  0
 11 12  1  0
 12 13  2  3
 13 14  1  0
 14 15  2  0
 15 16  1  0
 16 17  1  0
 17 18  1  0
 15 19  1  0
 19 20  1  0
 11 21  2  0
 21 22  1  0
 22 23  1  0
 23 24  1  0
 24 25  1  0
 25 26  1  0
 26 27  1  0
 26 28  1  0
 28 29  1  0
 22 30  2  0
  6 31  1  0
 31 32  1  0
 32  4  2  0
 30  9  1  0
 20 13  1  0
 29 23  1  0
 18 16  1  0
M  END
>  <Synonyms>  (520) 
XL-228|XL228

>  <Research Codes>  (520) 
XL228

>  <Phase>  (520) 
1

>  <Applicants>  (520) 
nan

>  <USAN Stem>  (520) 
nan

>  <USAN Year>  (520) 
nan

>  <USAN Stem Definition>  (520) 
nan

>  <USAN Stem Substem>  (520) 
nan

>  <First Approval>  (520) 
nan

>  <ATC Codes>  (520) 
nan

>  <Level 4 ATC Codes>  (520) 
nan

>  <Level 3 ATC Codes>  (520) 
nan

>  <Level 2 ATC Codes>  (520) 
nan

>  <Level 1 ATC Codes>  (520) 
nan

>  <Indication Class>  (520) 
nan

>  <Patent>  (520) 
nan

>  <Drug Type>  (520) 
1:Synthetic Small Molecule

>  <Passes Rule of Five>  (520) 
True

>  <First In Class>  (520) 
False

>  <Chirality>  (520) 
Achiral Molecule

>  <Prodrug>  (520) 
False

>  <Oral>  (520) 
False

>  <Parenteral>  (520) 
False

>  <Topical>  (520) 
False

>  <Black Box>  (520) 
False

>  <Availability Type>  (520) 
Unknown

>  <Withdrawn Year>  (520) 
nan

>  <Withdrawn Reason>  (520) 
nan

>  <Withdrawn Country>  (520) 
nan

>  <Withdrawn Class>  (520) 
nan

>  <SMILES>  (520) 
CC(C)c1cc(CNc2nc(Nc3cc(C4CC4)[nH]n3)cc(N3CCN(C)CC3)n2)on1

>  <InChi Key>  (520) 
ALKJNCZNEOTEMP-UHFFFAOYSA-N

$$$$
CHEMBL3544964
     RDKit          2D

 31 34  0  0  0  0  0  0  0  0999 V2000
   -1.7455   -2.9392    0.0000 C   0  0  0  0  0  0  0  0  0  0  0  0
   -0.7418   -4.0539    0.0000 N   0  0  0  0  0  0  0  0  0  0  0  0
   -1.0537   -5.5211    0.0000 N   0  0  0  0  0  0  0  0  0  0  0  0
    0.2454   -6.2711    0.0000 C   0  0  0  0  0  0  0  0  0  0  0  0
    1.3601   -5.2674    0.0000 C   0  0  0  0  0  0  0  0  0  0  0  0
    0.7500   -3.8971    0.0000 C   0  0  0  0  0  0  0  0  0  0  0  0
    1.5000   -2.5981    0.0000 N   0  0  0  0  0  0  0  0  0  0  0  0
    0.7500   -1.2990    0.0000 C   0  0  0  0  0  0  0  0  0  0  0  0
    1.5000    0.0000    0.0000 N   0  0  0  0  0  0  0  0  0  0  0  0
    0.7500    1.2990    0.0000 C   0  0  0  0  0  0  0  0  0  0  0  0
   -0.7500    1.2990    0.0000 C   0  0  0  0  0  0  0  0  0  0  0  0
   -1.5000    0.0000    0.0000 C   0  0  0  0  0  0  0  0  0  0  0  0
   -3.0000    0.0000    0.0000 C   0  0  0  0  0  0  0  0  0  0  0  0
   -3.7500    1.2990    0.0000 C   0  0  0  0  0  0  0  0  0  0  0  0
   -5.2500    1.2990    0.0000 C   0  0  0  0  0  0  0  0  0  0  0  0
   -6.0000    0.0000    0.0000 N   0  0  0  0  0  0  0  0  0  0  0  0
   -7.5000    0.0000    0.0000 C   0  0  0  0  0  0  0  0  0  0  0  0
   -8.2500   -1.2990    0.0000 C   0  0  0  0  0  0  0  0  0  0  0  0
   -9.7500   -1.2990    0.0000 O   0  0  0  0  0  0  0  0  0  0  0  0
   -8.2500    1.2990    0.0000 C   0  0  0  0  0  0  0  0  0  0  0  0
   -7.5000    2.5981    0.0000 C   0  0  0  0  0  0  0  0  0  0  0  0
   -8.2500    3.8971    0.0000 C   0  0  0  0  0  0  0  0  0  0  0  0
   -9.7500    3.8971    0.0000 C   0  0  0  0  0  0  0  0  0  0  0  0
  -10.5000    5.1962    0.0000 Cl  0  0  0  0  0  0  0  0  0  0  0  0
  -10.5000    2.5981    0.0000 C   0  0  0  0  0  0  0  0  0  0  0  0
  -12.0000    2.5981    0.0000 F   0  0  0  0  0  0  0  0  0  0  0  0
   -9.7500    1.2990    0.0000 C   0  0  0  0  0  0  0  0  0  0  0  0
   -5.2500   -1.2990    0.0000 C   0  0  0  0  0  0  0  0  0  0  0  0
   -6.0000   -2.5981    0.0000 O   0  0  0  0  0  0  0  0  0  0  0  0
   -3.7500   -1.2990    0.0000 C   0  0  0  0  0  0  0  0  0  0  0  0
   -0.7500   -1.2990    0.0000 N   0  0  0  0  0  0  0  0  0  0  0  0
  1  2  1  0
  2  3  1  0
  3  4  2  0
  4  5  1  0
  5  6  2  0
  6  7  1  0
  7  8  2  3
  8  9  1  0
  9 10  1  0
 10 11  2  0
 11 12  1  0
 12 13  1  0
 13 14  1  0
 14 15  2  0
 15 16  1  0
 16 17  1  0
 17 18  1  6
 18 19  1  0
 17 20  1  0
 20 21  2  0
 21 22  1  0
 22 23  2  0
 23 24  1  0
 23 25  1  0
 25 26  1  0
 25 27  2  0
 16 28  1  0
 28 29  2  0
 28 30  1  0
 12 31  2  0
  6  2  1  0
 31  8  1  0
 30 13  2  0
 27 20  1  0
M  END
>  <Synonyms>  (521) 
GDC-0994|GDC0994|RAVOXERTINIB|RG-7842

>  <Research Codes>  (521) 
GDC-0994|GDC0994|RG-7842

>  <Phase>  (521) 
1

>  <Applicants>  (521) 
nan

>  <USAN Stem>  (521) 
'-tinib'

>  <USAN Year>  (521) 
2017.0

>  <USAN Stem Definition>  (521) 
tyrosine kinase inhibitors: epidermal growth factor receptor (EGFR) inhibitors|tyrosine kinase inhibitors: Tyrosine kinase inhibitors ERK1 and ERK2 inhibitors

>  <USAN Stem Substem>  (521) 
'-tinib(-tinib (-ertinib|-xertinib))'

>  <First Approval>  (521) 
nan

>  <ATC Codes>  (521) 
nan

>  <Level 4 ATC Codes>  (521) 
nan

>  <Level 3 ATC Codes>  (521) 
nan

>  <Level 2 ATC Codes>  (521) 
nan

>  <Level 1 ATC Codes>  (521) 
nan

>  <Indication Class>  (521) 
nan

>  <Patent>  (521) 
nan

>  <Drug Type>  (521) 
1:Synthetic Small Molecule

>  <Passes Rule of Five>  (521) 
True

>  <First In Class>  (521) 
False

>  <Chirality>  (521) 
Single Stereoisomer

>  <Prodrug>  (521) 
False

>  <Oral>  (521) 
False

>  <Parenteral>  (521) 
False

>  <Topical>  (521) 
False

>  <Black Box>  (521) 
False

>  <Availability Type>  (521) 
Unknown

>  <Withdrawn Year>  (521) 
nan

>  <Withdrawn Reason>  (521) 
nan

>  <Withdrawn Country>  (521) 
nan

>  <Withdrawn Class>  (521) 
nan

>  <SMILES>  (521) 
Cn1nccc1Nc1nccc(-c2ccn([C@H](CO)c3ccc(Cl)c(F)c3)c(=O)c2)n1

>  <InChi Key>  (521) 
RZUOCXOYPYGSKL-GOSISDBHSA-N

$$$$
CHEMBL353581
     RDKit          2D

 19 19  0  0  0  0  0  0  0  0999 V2000
   12.7500   -3.8971    0.0000 O   0  0  0  0  0  0  0  0  0  0  0  0
   12.0000   -5.1962    0.0000 C   0  0  0  0  0  0  0  0  0  0  0  0
   10.5000   -5.1962    0.0000 C   0  0  0  0  0  0  0  0  0  0  0  0
    9.7500   -3.8971    0.0000 C   0  0  0  0  0  0  0  0  0  0  0  0
    8.2500   -3.8971    0.0000 C   0  0  0  0  0  0  0  0  0  0  0  0
    7.5000   -2.5981    0.0000 C   0  0  0  0  0  0  0  0  0  0  0  0
    6.0000   -2.5981    0.0000 C   0  0  0  0  0  0  0  0  0  0  0  0
    5.2500   -1.2990    0.0000 C   0  0  0  0  0  0  0  0  0  0  0  0
    3.7500   -1.2990    0.0000 C   0  0  0  0  0  0  0  0  0  0  0  0
    3.0000   -2.5981    0.0000 O   0  0  0  0  0  0  0  0  0  0  0  0
    3.0000    0.0000    0.0000 N   0  0  0  0  0  0  0  0  0  0  0  0
    1.5000    0.0000    0.0000 C   0  0  0  0  0  0  0  0  0  0  0  0
    0.7500   -1.2990    0.0000 C   0  0  0  0  0  0  0  0  0  0  0  0
   -0.7500   -1.2990    0.0000 C   0  0  0  0  0  0  0  0  0  0  0  0
   -1.5000    0.0000    0.0000 C   0  0  0  0  0  0  0  0  0  0  0  0
   -0.7500    1.2990    0.0000 N   0  0  0  0  0  0  0  0  0  0  0  0
    0.7500    1.2990    0.0000 C   0  0  0  0  0  0  0  0  0  0  0  0
   12.7500   -6.4952    0.0000 N   0  0  0  0  0  0  0  0  0  0  0  0
   14.2500   -6.4952    0.0000 O   0  0  0  0  0  0  0  0  0  0  0  0
  1  2  1  0
  2  3  1  0
  3  4  1  0
  4  5  1  0
  5  6  1  0
  6  7  1  0
  7  8  1  0
  8  9  1  0
  9 10  2  0
  9 11  1  0
 11 12  1  0
 12 13  2  0
 13 14  1  0
 14 15  2  0
 15 16  1  0
 16 17  2  0
  2 18  2  3
 18 19  1  0
 17 12  1  0
M  END
>  <Synonyms>  (522) 
Octanedioic acid hydroxyamide pyridin-3-ylamide|PYROXAMIDE

>  <Research Codes>  (522) 
nan

>  <Phase>  (522) 
1

>  <Applicants>  (522) 
nan

>  <USAN Stem>  (522) 
nan

>  <USAN Year>  (522) 
nan

>  <USAN Stem Definition>  (522) 
nan

>  <USAN Stem Substem>  (522) 
nan

>  <First Approval>  (522) 
nan

>  <ATC Codes>  (522) 
nan

>  <Level 4 ATC Codes>  (522) 
nan

>  <Level 3 ATC Codes>  (522) 
nan

>  <Level 2 ATC Codes>  (522) 
nan

>  <Level 1 ATC Codes>  (522) 
nan

>  <Indication Class>  (522) 
nan

>  <Patent>  (522) 
nan

>  <Drug Type>  (522) 
1:Synthetic Small Molecule

>  <Passes Rule of Five>  (522) 
True

>  <First In Class>  (522) 
False

>  <Chirality>  (522) 
Achiral Molecule

>  <Prodrug>  (522) 
False

>  <Oral>  (522) 
False

>  <Parenteral>  (522) 
False

>  <Topical>  (522) 
False

>  <Black Box>  (522) 
False

>  <Availability Type>  (522) 
Unknown

>  <Withdrawn Year>  (522) 
nan

>  <Withdrawn Reason>  (522) 
nan

>  <Withdrawn Country>  (522) 
nan

>  <Withdrawn Class>  (522) 
nan

>  <SMILES>  (522) 
O=C(CCCCCCC(=O)Nc1cccnc1)NO

>  <InChi Key>  (522) 
PTJGLFIIZFVFJV-UHFFFAOYSA-N

$$$$
CHEMBL609583
     RDKit          2D

 29 32  0  0  0  0  0  0  0  0999 V2000
   -6.0000  -15.5885    0.0000 O   0  0  0  0  0  0  0  0  0  0  0  0
   -6.7500  -14.2894    0.0000 C   0  0  0  0  0  0  0  0  0  0  0  0
   -8.2500  -14.2894    0.0000 N   0  0  0  0  0  0  0  0  0  0  0  0
   -9.0000  -15.5885    0.0000 O   0  0  0  0  0  0  0  0  0  0  0  0
   -6.0000  -12.9904    0.0000 C   0  0  0  0  0  0  0  0  0  0  0  0
   -6.7500  -11.6913    0.0000 C   0  0  0  0  0  0  0  0  0  0  0  0
   -6.0000  -10.3923    0.0000 N   0  0  0  0  0  0  0  0  0  0  0  0
   -4.5000  -10.3923    0.0000 C   0  0  0  0  0  0  0  0  0  0  0  0
   -3.7500   -9.0933    0.0000 N   0  0  0  0  0  0  0  0  0  0  0  0
   -2.2500   -9.0933    0.0000 C   0  0  0  0  0  0  0  0  0  0  0  0
   -1.5000   -7.7942    0.0000 C   0  0  0  0  0  0  0  0  0  0  0  0
   -2.2500   -6.4952    0.0000 N   0  0  0  0  0  0  0  0  0  0  0  0
   -1.5000   -5.1962    0.0000 S   0  0  0  0  0  0  0  0  0  0  0  0
   -2.7990   -4.4462    0.0000 O   0  0  0  0  0  0  0  0  0  0  0  0
   -0.2010   -5.9462    0.0000 O   0  0  0  0  0  0  0  0  0  0  0  0
   -0.7500   -3.8971    0.0000 C   0  0  0  0  0  0  0  0  0  0  0  0
    0.7500   -3.8971    0.0000 C   0  0  0  0  0  0  0  0  0  0  0  0
    1.5000   -2.5981    0.0000 C   0  0  0  0  0  0  0  0  0  0  0  0
    0.7500   -1.2990    0.0000 C   0  0  0  0  0  0  0  0  0  0  0  0
    1.5000    0.0000    0.0000 C   0  0  0  0  0  0  0  0  0  0  0  0
    0.7500    1.2990    0.0000 C   0  0  0  0  0  0  0  0  0  0  0  0
   -0.7500    1.2990    0.0000 C   0  0  0  0  0  0  0  0  0  0  0  0
   -1.5000    0.0000    0.0000 C   0  0  0  0  0  0  0  0  0  0  0  0
   -0.7500   -1.2990    0.0000 C   0  0  0  0  0  0  0  0  0  0  0  0
   -1.5000   -2.5981    0.0000 C   0  0  0  0  0  0  0  0  0  0  0  0
   -3.7500   -6.4952    0.0000 C   0  0  0  0  0  0  0  0  0  0  0  0
   -4.5000   -7.7942    0.0000 C   0  0  0  0  0  0  0  0  0  0  0  0
   -3.7500  -11.6913    0.0000 N   0  0  0  0  0  0  0  0  0  0  0  0
   -4.5000  -12.9904    0.0000 C   0  0  0  0  0  0  0  0  0  0  0  0
  1  2  1  0
  2  3  2  3
  3  4  1  0
  2  5  1  0
  5  6  2  0
  6  7  1  0
  7  8  2  0
  8  9  1  0
  9 10  1  0
 10 11  1  0
 11 12  1  0
 12 13  1  0
 13 14  2  0
 13 15  2  0
 13 16  1  0
 16 17  2  0
 17 18  1  0
 18 19  2  0
 19 20  1  0
 20 21  2  0
 21 22  1  0
 22 23  2  0
 23 24  1  0
 24 25  2  0
 12 26  1  0
 26 27  1  0
  8 28  1  0
 28 29  2  0
 29  5  1  0
 27  9  1  0
 25 16  1  0
 24 19  1  0
M  END
>  <Synonyms>  (523) 
JNJ-16241199|R-306465|R306465

>  <Research Codes>  (523) 
JNJ-16241199|R306465

>  <Phase>  (523) 
1

>  <Applicants>  (523) 
nan

>  <USAN Stem>  (523) 
nan

>  <USAN Year>  (523) 
nan

>  <USAN Stem Definition>  (523) 
nan

>  <USAN Stem Substem>  (523) 
nan

>  <First Approval>  (523) 
nan

>  <ATC Codes>  (523) 
nan

>  <Level 4 ATC Codes>  (523) 
nan

>  <Level 3 ATC Codes>  (523) 
nan

>  <Level 2 ATC Codes>  (523) 
nan

>  <Level 1 ATC Codes>  (523) 
nan

>  <Indication Class>  (523) 
nan

>  <Patent>  (523) 
nan

>  <Drug Type>  (523) 
1:Synthetic Small Molecule

>  <Passes Rule of Five>  (523) 
True

>  <First In Class>  (523) 
False

>  <Chirality>  (523) 
Achiral Molecule

>  <Prodrug>  (523) 
False

>  <Oral>  (523) 
False

>  <Parenteral>  (523) 
False

>  <Topical>  (523) 
False

>  <Black Box>  (523) 
False

>  <Availability Type>  (523) 
Unknown

>  <Withdrawn Year>  (523) 
nan

>  <Withdrawn Reason>  (523) 
nan

>  <Withdrawn Country>  (523) 
nan

>  <Withdrawn Class>  (523) 
nan

>  <SMILES>  (523) 
O=C(NO)c1cnc(N2CCN(S(=O)(=O)c3ccc4ccccc4c3)CC2)nc1

>  <InChi Key>  (523) 
MUTBJZVSRNUIHA-UHFFFAOYSA-N

$$$$
CHEMBL4297282
     RDKit          2D

 40 44  0  0  0  0  0  0  0  0999 V2000
    9.4815    6.2585    0.0000 C   0  0  0  0  0  0  0  0  0  0  0  0
    8.2680    5.3768    0.0000 N   0  0  0  0  0  0  0  0  0  0  0  0
    6.8977    5.9869    0.0000 C   0  0  0  0  0  0  0  0  0  0  0  0
    6.7409    7.4787    0.0000 C   0  0  0  0  0  0  0  0  0  0  0  0
    5.6842    5.1053    0.0000 C   0  0  0  0  0  0  0  0  0  0  0  0
    4.3138    5.7154    0.0000 O   0  0  0  0  0  0  0  0  0  0  0  0
    5.8409    3.6135    0.0000 N   0  0  0  0  0  0  0  0  0  0  0  0
    4.6274    2.7318    0.0000 C   0  0  0  0  0  0  0  0  0  0  0  0
    4.7842    1.2400    0.0000 C   0  0  0  0  0  0  0  0  0  0  0  0
    3.5707    0.3583    0.0000 O   0  0  0  0  0  0  0  0  0  0  0  0
    6.1545    0.6299    0.0000 N   0  0  0  0  0  0  0  0  0  0  0  0
    7.4536    1.3799    0.0000 C   0  0  0  0  0  0  0  0  0  0  0  0
    8.5683    0.3762    0.0000 C   0  0  0  0  0  0  0  0  0  0  0  0
    7.9582   -0.9941    0.0000 C   0  0  0  0  0  0  0  0  0  0  0  0
    6.4664   -0.8373    0.0000 C   0  0  0  0  0  0  0  0  0  0  0  0
    5.4627   -1.9520    0.0000 C   0  0  0  0  0  0  0  0  0  0  0  0
    5.9262   -3.3786    0.0000 O   0  0  0  0  0  0  0  0  0  0  0  0
    3.9955   -1.6402    0.0000 N   0  0  0  0  0  0  0  0  0  0  0  0
    2.9918   -2.7549    0.0000 C   0  0  0  0  0  0  0  0  0  0  0  0
    3.3037   -4.2221    0.0000 S   0  0  0  0  0  0  0  0  0  0  0  0
    2.0046   -4.9721    0.0000 C   0  0  0  0  0  0  0  0  0  0  0  0
    1.8478   -6.4639    0.0000 C   0  0  0  0  0  0  0  0  0  0  0  0
    2.9625   -7.4676    0.0000 N   0  0  0  0  0  0  0  0  0  0  0  0
    2.3524   -8.8379    0.0000 C   0  0  0  0  0  0  0  0  0  0  0  0
    0.8606   -8.6811    0.0000 C   0  0  0  0  0  0  0  0  0  0  0  0
    0.5488   -7.2139    0.0000 O   0  0  0  0  0  0  0  0  0  0  0  0
    0.8899   -3.9684    0.0000 N   0  0  0  0  0  0  0  0  0  0  0  0
    1.5000   -2.5981    0.0000 C   0  0  0  0  0  0  0  0  0  0  0  0
    0.7500   -1.2990    0.0000 C   0  0  0  0  0  0  0  0  0  0  0  0
    1.5000    0.0000    0.0000 C   0  0  0  0  0  0  0  0  0  0  0  0
    0.7500    1.2990    0.0000 C   0  0  0  0  0  0  0  0  0  0  0  0
   -0.7500    1.2990    0.0000 C   0  0  0  0  0  0  0  0  0  0  0  0
   -1.5000    0.0000    0.0000 C   0  0  0  0  0  0  0  0  0  0  0  0
   -0.7500   -1.2990    0.0000 C   0  0  0  0  0  0  0  0  0  0  0  0
    3.2571    3.3419    0.0000 C   0  0  0  0  0  0  0  0  0  0  0  0
    3.1003    4.8337    0.0000 C   0  0  0  0  0  0  0  0  0  0  0  0
    1.7300    5.4438    0.0000 C   0  0  0  0  0  0  0  0  0  0  0  0
    0.5165    4.5621    0.0000 C   0  0  0  0  0  0  0  0  0  0  0  0
    0.6733    3.0703    0.0000 C   0  0  0  0  0  0  0  0  0  0  0  0
    2.0436    2.4602    0.0000 C   0  0  0  0  0  0  0  0  0  0  0  0
  1  2  1  0
  2  3  1  0
  3  4  1  0
  3  5  1  0
  5  6  2  0
  5  7  1  0
  7  8  1  0
  8  9  1  0
  9 10  2  0
  9 11  1  0
 11 12  1  0
 12 13  1  0
 13 14  1  0
 14 15  1  0
 15 16  1  0
 16 17  2  0
 16 18  1  0
 18 19  1  0
 19 20  1  0
 20 21  1  0
 21 22  1  0
 22 23  2  0
 23 24  1  0
 24 25  2  0
 25 26  1  0
 21 27  2  0
 27 28  1  0
 28 29  1  0
 29 30  2  0
 30 31  1  0
 31 32  2  0
 32 33  1  0
 33 34  2  0
  8 35  1  0
 35 36  1  0
 36 37  1  0
 37 38  1  0
 38 39  1  0
 39 40  1  0
 15 11  1  0
 28 19  2  0
 34 29  1  0
 40 35  1  0
 26 22  1  0
M  END
>  <Synonyms>  (524) 
CUDC 427|CUDC-427|GDC-0917

>  <Research Codes>  (524) 
CUDC-427

>  <Phase>  (524) 
1

>  <Applicants>  (524) 
nan

>  <USAN Stem>  (524) 
nan

>  <USAN Year>  (524) 
nan

>  <USAN Stem Definition>  (524) 
nan

>  <USAN Stem Substem>  (524) 
nan

>  <First Approval>  (524) 
nan

>  <ATC Codes>  (524) 
nan

>  <Level 4 ATC Codes>  (524) 
nan

>  <Level 3 ATC Codes>  (524) 
nan

>  <Level 2 ATC Codes>  (524) 
nan

>  <Level 1 ATC Codes>  (524) 
nan

>  <Indication Class>  (524) 
nan

>  <Patent>  (524) 
nan

>  <Drug Type>  (524) 
1:Synthetic Small Molecule

>  <Passes Rule of Five>  (524) 
False

>  <First In Class>  (524) 
False

>  <Chirality>  (524) 
Single Stereoisomer

>  <Prodrug>  (524) 
False

>  <Oral>  (524) 
False

>  <Parenteral>  (524) 
False

>  <Topical>  (524) 
False

>  <Black Box>  (524) 
False

>  <Availability Type>  (524) 
Unknown

>  <Withdrawn Year>  (524) 
nan

>  <Withdrawn Reason>  (524) 
nan

>  <Withdrawn Country>  (524) 
nan

>  <Withdrawn Class>  (524) 
nan

>  <SMILES>  (524) 
CN[C@@H](C)C(=O)N[C@H](C(=O)N1CCC[C@H]1C(=O)Nc1sc(-c2ncco2)nc1-c1ccccc1)C1CCCCC1

>  <InChi Key>  (524) 
HSHPBORBOJIXSQ-UHFFFAOYSA-N

$$$$
CHEMBL2165191
     RDKit          2D

 30 33  0  0  0  0  0  0  0  0999 V2000
    3.0000    0.0000    0.0000 C   0  0  0  0  0  0  0  0  0  0  0  0
    1.5000    0.0000    0.0000 C   0  0  0  0  0  0  0  0  0  0  0  0
    0.7500   -1.2990    0.0000 C   0  0  0  0  0  0  0  0  0  0  0  0
   -0.7500   -1.2990    0.0000 C   0  0  0  0  0  0  0  0  0  0  0  0
   -1.5000   -2.5981    0.0000 C   0  0  0  0  0  0  0  0  0  0  0  0
   -0.7500   -3.8971    0.0000 C   0  0  0  0  0  0  0  0  0  0  0  0
   -3.0000   -2.5981    0.0000 N   0  0  0  0  0  0  0  0  0  0  0  0
   -3.7500   -3.8971    0.0000 C   0  0  0  0  0  0  0  0  0  0  0  0
   -3.0000   -5.1962    0.0000 C   0  0  0  0  0  0  0  0  0  0  0  0
   -3.7500   -6.4952    0.0000 C   0  0  0  0  0  0  0  0  0  0  0  0
   -5.2500   -6.4952    0.0000 C   0  0  0  0  0  0  0  0  0  0  0  0
   -6.0000   -5.1962    0.0000 C   0  0  0  0  0  0  0  0  0  0  0  0
   -5.2500   -3.8971    0.0000 C   0  0  0  0  0  0  0  0  0  0  0  0
   -6.0000   -2.5981    0.0000 C   0  0  0  0  0  0  0  0  0  0  0  0
   -5.2500   -1.2990    0.0000 O   0  0  0  0  0  0  0  0  0  0  0  0
   -7.5000   -2.5981    0.0000 O   0  0  0  0  0  0  0  0  0  0  0  0
   -1.5000    0.0000    0.0000 C   0  0  0  0  0  0  0  0  0  0  0  0
   -3.0000    0.0000    0.0000 N   0  0  0  0  0  0  0  0  0  0  0  0
   -3.7500    1.2990    0.0000 C   0  0  0  0  0  0  0  0  0  0  0  0
   -5.2500    1.2990    0.0000 N   0  0  0  0  0  0  0  0  0  0  0  0
   -6.0000    2.5981    0.0000 C   0  0  0  0  0  0  0  0  0  0  0  0
   -7.5000    2.5981    0.0000 C   0  0  0  0  0  0  0  0  0  0  0  0
   -8.2500    1.2990    0.0000 O   0  0  0  0  0  0  0  0  0  0  0  0
   -7.5000    0.0000    0.0000 C   0  0  0  0  0  0  0  0  0  0  0  0
   -6.0000    0.0000    0.0000 C   0  0  0  0  0  0  0  0  0  0  0  0
   -3.0000    2.5981    0.0000 C   0  0  0  0  0  0  0  0  0  0  0  0
   -1.5000    2.5981    0.0000 C   0  0  0  0  0  0  0  0  0  0  0  0
   -0.7500    3.8971    0.0000 O   0  0  0  0  0  0  0  0  0  0  0  0
   -0.7500    1.2990    0.0000 N   0  0  0  0  0  0  0  0  0  0  0  0
    0.7500    1.2990    0.0000 C   0  0  0  0  0  0  0  0  0  0  0  0
  1  2  1  0
  2  3  1  0
  3  4  2  0
  4  5  1  0
  5  6  1  1
  5  7  1  0
  7  8  1  0
  8  9  2  0
  9 10  1  0
 10 11  2  0
 11 12  1  0
 12 13  2  0
 13 14  1  0
 14 15  2  0
 14 16  1  0
  4 17  1  0
 17 18  2  0
 18 19  1  0
 19 20  1  0
 20 21  1  0
 21 22  1  0
 22 23  1  0
 23 24  1  0
 24 25  1  0
 19 26  2  0
 26 27  1  0
 27 28  2  0
 27 29  1  0
 29 30  1  0
 30  2  2  0
 13  8  1  0
 29 17  1  0
 25 20  1  0
M  END
>  <Synonyms>  (525) 
AZD 6482|AZD-6482|AZD6482

>  <Research Codes>  (525) 
AZD-6482|AZD6482

>  <Phase>  (525) 
1

>  <Applicants>  (525) 
nan

>  <USAN Stem>  (525) 
nan

>  <USAN Year>  (525) 
nan

>  <USAN Stem Definition>  (525) 
nan

>  <USAN Stem Substem>  (525) 
nan

>  <First Approval>  (525) 
nan

>  <ATC Codes>  (525) 
nan

>  <Level 4 ATC Codes>  (525) 
nan

>  <Level 3 ATC Codes>  (525) 
nan

>  <Level 2 ATC Codes>  (525) 
nan

>  <Level 1 ATC Codes>  (525) 
nan

>  <Indication Class>  (525) 
nan

>  <Patent>  (525) 
nan

>  <Drug Type>  (525) 
1:Synthetic Small Molecule

>  <Passes Rule of Five>  (525) 
True

>  <First In Class>  (525) 
False

>  <Chirality>  (525) 
Single Stereoisomer

>  <Prodrug>  (525) 
False

>  <Oral>  (525) 
False

>  <Parenteral>  (525) 
False

>  <Topical>  (525) 
False

>  <Black Box>  (525) 
False

>  <Availability Type>  (525) 
Unknown

>  <Withdrawn Year>  (525) 
nan

>  <Withdrawn Reason>  (525) 
nan

>  <Withdrawn Country>  (525) 
nan

>  <Withdrawn Class>  (525) 
nan

>  <SMILES>  (525) 
Cc1cc([C@@H](C)Nc2ccccc2C(=O)O)c2nc(N3CCOCC3)cc(=O)n2c1

>  <InChi Key>  (525) 
IRTDIKMSKMREGO-OAHLLOKOSA-N

$$$$
CHEMBL2041933
     RDKit          2D

 25 27  0  0  0  0  0  0  0  0999 V2000
    7.2578   -4.5606    0.0000 N   0  0  0  0  0  0  0  0  0  0  0  0
    5.8875   -3.9505    0.0000 C   0  0  0  0  0  0  0  0  0  0  0  0
    5.7307   -2.4587    0.0000 O   0  0  0  0  0  0  0  0  0  0  0  0
    4.6740   -4.8322    0.0000 N   0  0  0  0  0  0  0  0  0  0  0  0
    3.3037   -4.2221    0.0000 C   0  0  0  0  0  0  0  0  0  0  0  0
    2.9918   -2.7549    0.0000 C   0  0  0  0  0  0  0  0  0  0  0  0
    1.5000   -2.5981    0.0000 C   0  0  0  0  0  0  0  0  0  0  0  0
    0.7500   -1.2990    0.0000 C   0  0  0  0  0  0  0  0  0  0  0  0
    1.5000    0.0000    0.0000 C   0  0  0  0  0  0  0  0  0  0  0  0
    0.7500    1.2990    0.0000 C   0  0  0  0  0  0  0  0  0  0  0  0
   -0.7500    1.2990    0.0000 C   0  0  0  0  0  0  0  0  0  0  0  0
   -1.5000    0.0000    0.0000 C   0  0  0  0  0  0  0  0  0  0  0  0
   -3.0000    0.0000    0.0000 F   0  0  0  0  0  0  0  0  0  0  0  0
   -0.7500   -1.2990    0.0000 C   0  0  0  0  0  0  0  0  0  0  0  0
    0.8899   -3.9684    0.0000 S   0  0  0  0  0  0  0  0  0  0  0  0
    2.0046   -4.9721    0.0000 C   0  0  0  0  0  0  0  0  0  0  0  0
    1.8478   -6.4639    0.0000 C   0  0  0  0  0  0  0  0  0  0  0  0
    3.0613   -7.3456    0.0000 O   0  0  0  0  0  0  0  0  0  0  0  0
    0.4775   -7.0740    0.0000 N   0  0  0  0  0  0  0  0  0  0  0  0
    0.3207   -8.5658    0.0000 C   0  0  0  0  0  0  0  0  0  0  0  0
   -1.0496   -9.1759    0.0000 C   0  0  0  0  0  0  0  0  0  0  0  0
   -1.2064  -10.6676    0.0000 C   0  0  0  0  0  0  0  0  0  0  0  0
    0.0071  -11.5493    0.0000 C   0  0  0  0  0  0  0  0  0  0  0  0
    1.3774  -10.9392    0.0000 N   0  0  0  0  0  0  0  0  0  0  0  0
    1.5342   -9.4474    0.0000 C   0  0  0  0  0  0  0  0  0  0  0  0
  1  2  1  0
  2  3  2  0
  2  4  1  0
  4  5  1  0
  5  6  1  0
  6  7  2  0
  7  8  1  0
  8  9  2  0
  9 10  1  0
 10 11  2  0
 11 12  1  0
 12 13  1  0
 12 14  2  0
  7 15  1  0
 15 16  1  0
 16 17  1  0
 17 18  2  0
 17 19  1  0
 20 19  1  6
 20 21  1  0
 21 22  1  0
 22 23  1  0
 23 24  1  0
 24 25  1  0
 16  5  2  0
 25 20  1  0
 14  8  1  0
M  END
>  <Synonyms>  (526) 
AZD 7762|AZD-7762|AZD7762

>  <Research Codes>  (526) 
AZD-7762|AZD7762

>  <Phase>  (526) 
1

>  <Applicants>  (526) 
nan

>  <USAN Stem>  (526) 
nan

>  <USAN Year>  (526) 
nan

>  <USAN Stem Definition>  (526) 
nan

>  <USAN Stem Substem>  (526) 
nan

>  <First Approval>  (526) 
nan

>  <ATC Codes>  (526) 
nan

>  <Level 4 ATC Codes>  (526) 
nan

>  <Level 3 ATC Codes>  (526) 
nan

>  <Level 2 ATC Codes>  (526) 
nan

>  <Level 1 ATC Codes>  (526) 
nan

>  <Indication Class>  (526) 
nan

>  <Patent>  (526) 
nan

>  <Drug Type>  (526) 
1:Synthetic Small Molecule

>  <Passes Rule of Five>  (526) 
True

>  <First In Class>  (526) 
False

>  <Chirality>  (526) 
Single Stereoisomer

>  <Prodrug>  (526) 
False

>  <Oral>  (526) 
False

>  <Parenteral>  (526) 
False

>  <Topical>  (526) 
False

>  <Black Box>  (526) 
False

>  <Availability Type>  (526) 
Unknown

>  <Withdrawn Year>  (526) 
nan

>  <Withdrawn Reason>  (526) 
nan

>  <Withdrawn Country>  (526) 
nan

>  <Withdrawn Class>  (526) 
nan

>  <SMILES>  (526) 
NC(=O)Nc1cc(-c2cccc(F)c2)sc1C(=O)N[C@H]1CCCNC1

>  <InChi Key>  (526) 
IAYGCINLNONXHY-LBPRGKRZSA-N

$$$$
CHEMBL3545360
     RDKit          2D

 41 45  0  0  0  0  0  0  0  0999 V2000
    3.7500   -1.2990    0.0000 C   0  0  0  0  0  0  0  0  0  0  0  0
    3.0000    0.0000    0.0000 O   0  0  0  0  0  0  0  0  0  0  0  0
    1.5000    0.0000    0.0000 C   0  0  0  0  0  0  0  0  0  0  0  0
    0.7500   -1.2990    0.0000 C   0  0  0  0  0  0  0  0  0  0  0  0
   -0.7500   -1.2990    0.0000 C   0  0  0  0  0  0  0  0  0  0  0  0
   -1.5000   -2.5981    0.0000 N   0  0  0  0  0  0  0  0  0  0  0  0
   -3.0000   -2.5981    0.0000 C   0  0  0  0  0  0  0  0  0  0  0  0
   -3.7500   -3.8971    0.0000 C   0  0  0  0  0  0  0  0  0  0  0  0
   -3.0000   -5.1962    0.0000 C   0  0  0  0  0  0  0  0  0  0  0  0
   -3.7500   -6.4952    0.0000 N   0  0  0  0  0  0  0  0  0  0  0  0
   -5.2500   -6.4952    0.0000 C   0  0  0  0  0  0  0  0  0  0  0  0
   -6.0000   -7.7942    0.0000 C   0  0  0  0  0  0  0  0  0  0  0  0
   -5.2500   -9.0933    0.0000 N   0  0  0  0  0  0  0  0  0  0  0  0
   -6.0000  -10.3923    0.0000 C   0  0  0  0  0  0  0  0  0  0  0  0
   -3.7500   -9.0933    0.0000 C   0  0  0  0  0  0  0  0  0  0  0  0
   -3.0000   -7.7942    0.0000 C   0  0  0  0  0  0  0  0  0  0  0  0
   -1.5000   -5.1962    0.0000 C   0  0  0  0  0  0  0  0  0  0  0  0
   -0.7500   -3.8971    0.0000 C   0  0  0  0  0  0  0  0  0  0  0  0
   -1.5000    0.0000    0.0000 C   0  0  0  0  0  0  0  0  0  0  0  0
   -0.7500    1.2990    0.0000 C   0  0  0  0  0  0  0  0  0  0  0  0
    0.7500    1.2990    0.0000 C   0  0  0  0  0  0  0  0  0  0  0  0
    1.5000    2.5981    0.0000 N   0  0  0  0  0  0  0  0  0  0  0  0
    0.7500    3.8971    0.0000 C   0  0  0  0  0  0  0  0  0  0  0  0
    1.5000    5.1962    0.0000 N   0  0  0  0  0  0  0  0  0  0  0  0
    0.7500    6.4952    0.0000 C   0  0  0  0  0  0  0  0  0  0  0  0
   -0.7500    6.4952    0.0000 N   0  0  0  0  0  0  0  0  0  0  0  0
   -1.5000    5.1962    0.0000 C   0  0  0  0  0  0  0  0  0  0  0  0
   -3.0000    5.1962    0.0000 N   0  0  0  0  0  0  0  0  0  0  0  0
   -3.7500    6.4952    0.0000 C   0  0  0  0  0  0  0  0  0  0  0  0
   -3.0000    7.7942    0.0000 C   0  0  0  0  0  0  0  0  0  0  0  0
   -3.7500    9.0933    0.0000 C   0  0  0  0  0  0  0  0  0  0  0  0
   -5.2500    9.0933    0.0000 C   0  0  0  0  0  0  0  0  0  0  0  0
   -6.0000    7.7942    0.0000 C   0  0  0  0  0  0  0  0  0  0  0  0
   -5.2500    6.4952    0.0000 C   0  0  0  0  0  0  0  0  0  0  0  0
   -6.0000    5.1962    0.0000 S   0  0  0  0  0  0  0  0  0  0  0  0
   -7.2990    5.9462    0.0000 O   0  0  0  0  0  0  0  0  0  0  0  0
   -4.7010    4.4462    0.0000 O   0  0  0  0  0  0  0  0  0  0  0  0
   -6.7500    3.8971    0.0000 C   0  0  0  0  0  0  0  0  0  0  0  0
   -6.0000    2.5981    0.0000 C   0  0  0  0  0  0  0  0  0  0  0  0
   -8.2500    3.8971    0.0000 C   0  0  0  0  0  0  0  0  0  0  0  0
   -0.7500    3.8971    0.0000 N   0  0  0  0  0  0  0  0  0  0  0  0
  1  2  1  0
  2  3  1  0
  3  4  2  0
  4  5  1  0
  5  6  1  0
  6  7  1  0
  7  8  1  0
  8  9  1  0
  9 10  1  0
 10 11  1  0
 11 12  1  0
 12 13  1  0
 13 14  1  0
 13 15  1  0
 15 16  1  0
  9 17  1  0
 17 18  1  0
  5 19  2  0
 19 20  1  0
 20 21  2  0
 21 22  1  0
 22 23  2  3
 23 24  1  0
 24 25  1  0
 25 26  2  0
 26 27  1  0
 27 28  2  3
 28 29  1  0
 29 30  2  0
 30 31  1  0
 31 32  2  0
 32 33  1  0
 33 34  2  0
 34 35  1  0
 35 36  2  0
 35 37  2  0
 35 38  1  0
 38 39  1  0
 38 40  1  0
 27 41  1  0
 21  3  1  0
 41 23  1  0
 18  6  1  0
 34 29  1  0
 16 10  1  0
M  END
>  <Synonyms>  (527) 
ASP 3026|ASP-3026|ASP3026

>  <Research Codes>  (527) 
ASP3026

>  <Phase>  (527) 
1

>  <Applicants>  (527) 
nan

>  <USAN Stem>  (527) 
nan

>  <USAN Year>  (527) 
nan

>  <USAN Stem Definition>  (527) 
nan

>  <USAN Stem Substem>  (527) 
nan

>  <First Approval>  (527) 
nan

>  <ATC Codes>  (527) 
nan

>  <Level 4 ATC Codes>  (527) 
nan

>  <Level 3 ATC Codes>  (527) 
nan

>  <Level 2 ATC Codes>  (527) 
nan

>  <Level 1 ATC Codes>  (527) 
nan

>  <Indication Class>  (527) 
nan

>  <Patent>  (527) 
nan

>  <Drug Type>  (527) 
1:Synthetic Small Molecule

>  <Passes Rule of Five>  (527) 
False

>  <First In Class>  (527) 
False

>  <Chirality>  (527) 
Achiral Molecule

>  <Prodrug>  (527) 
False

>  <Oral>  (527) 
False

>  <Parenteral>  (527) 
False

>  <Topical>  (527) 
False

>  <Black Box>  (527) 
False

>  <Availability Type>  (527) 
Unknown

>  <Withdrawn Year>  (527) 
nan

>  <Withdrawn Reason>  (527) 
nan

>  <Withdrawn Country>  (527) 
nan

>  <Withdrawn Class>  (527) 
nan

>  <SMILES>  (527) 
COc1cc(N2CCC(N3CCN(C)CC3)CC2)ccc1Nc1ncnc(Nc2ccccc2S(=O)(=O)C(C)C)n1

>  <InChi Key>  (527) 
MGGBYMDAPCCKCT-UHFFFAOYSA-N

$$$$
CHEMBL2001019
     RDKit          2D

 28 32  0  0  0  0  0  0  0  0999 V2000
   -1.2416  -15.9243    0.0000 O   0  0  0  0  0  0  0  0  0  0  0  0
   -2.3563  -14.9206    0.0000 C   0  0  0  0  0  0  0  0  0  0  0  0
   -2.0444  -13.4534    0.0000 C   0  0  0  0  0  0  0  0  0  0  0  0
   -3.1591  -12.4497    0.0000 N   0  0  0  0  0  0  0  0  0  0  0  0
   -3.0023  -10.9579    0.0000 C   0  0  0  0  0  0  0  0  0  0  0  0
   -4.3727  -10.3478    0.0000 C   0  0  0  0  0  0  0  0  0  0  0  0
   -4.6845   -8.8806    0.0000 C   0  0  0  0  0  0  0  0  0  0  0  0
   -6.1111   -8.4171    0.0000 C   0  0  0  0  0  0  0  0  0  0  0  0
   -6.4230   -6.9498    0.0000 N   0  0  0  0  0  0  0  0  0  0  0  0
   -5.3083   -5.9462    0.0000 C   0  0  0  0  0  0  0  0  0  0  0  0
   -5.3083   -4.4462    0.0000 N   0  0  0  0  0  0  0  0  0  0  0  0
   -3.8817   -3.9826    0.0000 N   0  0  0  0  0  0  0  0  0  0  0  0
   -3.0000   -5.1962    0.0000 N   0  0  0  0  0  0  0  0  0  0  0  0
   -1.5000   -5.1962    0.0000 C   0  0  0  0  0  0  0  0  0  0  0  0
   -0.7500   -3.8971    0.0000 C   0  0  0  0  0  0  0  0  0  0  0  0
    0.7500   -3.8971    0.0000 C   0  0  0  0  0  0  0  0  0  0  0  0
    1.5000   -2.5981    0.0000 C   0  0  0  0  0  0  0  0  0  0  0  0
    0.7500   -1.2990    0.0000 C   0  0  0  0  0  0  0  0  0  0  0  0
    1.5000    0.0000    0.0000 N   0  0  0  0  0  0  0  0  0  0  0  0
    0.7500    1.2990    0.0000 C   0  0  0  0  0  0  0  0  0  0  0  0
   -0.7500    1.2990    0.0000 C   0  0  0  0  0  0  0  0  0  0  0  0
   -1.5000    0.0000    0.0000 C   0  0  0  0  0  0  0  0  0  0  0  0
   -0.7500   -1.2990    0.0000 C   0  0  0  0  0  0  0  0  0  0  0  0
   -1.5000   -2.5981    0.0000 C   0  0  0  0  0  0  0  0  0  0  0  0
   -3.8817   -6.4097    0.0000 C   0  0  0  0  0  0  0  0  0  0  0  0
   -3.5698   -7.8769    0.0000 N   0  0  0  0  0  0  0  0  0  0  0  0
   -5.3764  -11.4625    0.0000 C   0  0  0  0  0  0  0  0  0  0  0  0
   -4.6264  -12.7616    0.0000 N   0  0  0  0  0  0  0  0  0  0  0  0
  1  2  1  0
  2  3  1  0
  3  4  1  0
  4  5  1  0
  5  6  2  0
  6  7  1  0
  7  8  2  0
  8  9  1  0
  9 10  2  0
 10 11  1  0
 11 12  2  0
 12 13  1  0
 13 14  1  0
 14 15  1  0
 15 16  2  0
 16 17  1  0
 17 18  2  0
 18 19  1  0
 19 20  2  0
 20 21  1  0
 21 22  2  0
 22 23  1  0
 23 24  2  0
 13 25  1  0
 25 26  2  0
  6 27  1  0
 27 28  2  0
 28  4  1  0
 26  7  1  0
 25 10  1  0
 24 15  1  0
 23 18  1  0
M  END
>  <Synonyms>  (528) 
PF-04217903|PF-4217903

>  <Research Codes>  (528) 
PF-04217903|PF-4217903

>  <Phase>  (528) 
1

>  <Applicants>  (528) 
nan

>  <USAN Stem>  (528) 
nan

>  <USAN Year>  (528) 
nan

>  <USAN Stem Definition>  (528) 
nan

>  <USAN Stem Substem>  (528) 
nan

>  <First Approval>  (528) 
nan

>  <ATC Codes>  (528) 
nan

>  <Level 4 ATC Codes>  (528) 
nan

>  <Level 3 ATC Codes>  (528) 
nan

>  <Level 2 ATC Codes>  (528) 
nan

>  <Level 1 ATC Codes>  (528) 
nan

>  <Indication Class>  (528) 
nan

>  <Patent>  (528) 
nan

>  <Drug Type>  (528) 
1:Synthetic Small Molecule

>  <Passes Rule of Five>  (528) 
True

>  <First In Class>  (528) 
False

>  <Chirality>  (528) 
Achiral Molecule

>  <Prodrug>  (528) 
False

>  <Oral>  (528) 
False

>  <Parenteral>  (528) 
False

>  <Topical>  (528) 
False

>  <Black Box>  (528) 
False

>  <Availability Type>  (528) 
Unknown

>  <Withdrawn Year>  (528) 
nan

>  <Withdrawn Reason>  (528) 
nan

>  <Withdrawn Country>  (528) 
nan

>  <Withdrawn Class>  (528) 
nan

>  <SMILES>  (528) 
OCCn1cc(-c2cnc3nnn(Cc4ccc5ncccc5c4)c3n2)cn1

>  <InChi Key>  (528) 
PDMUGYOXRHVNMO-UHFFFAOYSA-N

$$$$
CHEMBL504652
     RDKit          2D

 15 17  0  0  0  0  0  0  0  0999 V2000
   -2.0000    6.8056    0.0000 C   0  0  0  0  0  0  0  0  0  0  0  0
   -0.9963    7.9203    0.0000 C   0  0  0  0  0  0  0  0  0  0  0  0
    0.4709    7.6085    0.0000 N   0  0  0  0  0  0  0  0  0  0  0  0
    0.9345    6.1819    0.0000 C   0  0  0  0  0  0  0  0  0  0  0  0
   -0.0692    5.0672    0.0000 C   0  0  0  0  0  0  0  0  0  0  0  0
    0.3943    3.6406    0.0000 N   0  0  0  0  0  0  0  0  0  0  0  0
    1.8209    3.1771    0.0000 C   0  0  0  0  0  0  0  0  0  0  0  0
    1.8209    1.6771    0.0000 C   0  0  0  0  0  0  0  0  0  0  0  0
    0.3943    1.2135    0.0000 C   0  0  0  0  0  0  0  0  0  0  0  0
    1.2760    0.0000    0.0000 C   0  0  0  0  0  0  0  0  0  0  0  0
    0.3943   -1.2135    0.0000 C   0  0  0  0  0  0  0  0  0  0  0  0
   -1.0323   -0.7500    0.0000 C   0  0  0  0  0  0  0  0  0  0  0  0
   -1.0323    0.7500    0.0000 N   0  0  0  0  0  0  0  0  0  0  0  0
   -0.4874    2.4271    0.0000 C   0  0  0  0  0  0  0  0  0  0  0  0
   -1.5364    5.3790    0.0000 C   0  0  0  0  0  0  0  0  0  0  0  0
  1  2  2  0
  2  3  1  0
  3  4  2  0
  4  5  1  0
  5  6  1  0
  6  7  1  0
  7  8  1  0
  8  9  1  0
  9 10  1  0
 10 11  1  0
 11 12  1  0
 12 13  1  0
  9 14  1  0
  5 15  2  0
 15  1  1  0
 14  6  1  0
 13  9  1  0
M  END
>  <Synonyms>  (529) 
TC-2216

>  <Research Codes>  (529) 
nan

>  <Phase>  (529) 
1

>  <Applicants>  (529) 
nan

>  <USAN Stem>  (529) 
nan

>  <USAN Year>  (529) 
nan

>  <USAN Stem Definition>  (529) 
nan

>  <USAN Stem Substem>  (529) 
nan

>  <First Approval>  (529) 
nan

>  <ATC Codes>  (529) 
nan

>  <Level 4 ATC Codes>  (529) 
nan

>  <Level 3 ATC Codes>  (529) 
nan

>  <Level 2 ATC Codes>  (529) 
nan

>  <Level 1 ATC Codes>  (529) 
nan

>  <Indication Class>  (529) 
nan

>  <Patent>  (529) 
nan

>  <Drug Type>  (529) 
1:Synthetic Small Molecule

>  <Passes Rule of Five>  (529) 
True

>  <First In Class>  (529) 
False

>  <Chirality>  (529) 
Racemic Mixture

>  <Prodrug>  (529) 
False

>  <Oral>  (529) 
False

>  <Parenteral>  (529) 
False

>  <Topical>  (529) 
False

>  <Black Box>  (529) 
False

>  <Availability Type>  (529) 
Unknown

>  <Withdrawn Year>  (529) 
nan

>  <Withdrawn Reason>  (529) 
nan

>  <Withdrawn Country>  (529) 
nan

>  <Withdrawn Class>  (529) 
nan

>  <SMILES>  (529) 
c1cncc(N2CCC3(CCCN3)C2)c1

>  <InChi Key>  (529) 
NXIPMBQVNTWEEX-UHFFFAOYSA-N

$$$$
CHEMBL113051
     RDKit          2D

 33 37  0  0  0  0  0  0  0  0999 V2000
    5.9157   -6.1668    0.0000 C   0  0  0  0  0  0  0  0  0  0  0  0
    4.4738   -6.5802    0.0000 C   0  0  0  0  0  0  0  0  0  0  0  0
    4.1110   -8.0357    0.0000 C   0  0  0  0  0  0  0  0  0  0  0  0
    5.6073   -8.1403    0.0000 O   0  0  0  0  0  0  0  0  0  0  0  0
    4.2677   -9.5275    0.0000 C   0  0  0  0  0  0  0  0  0  0  0  0
    5.6381  -10.1376    0.0000 O   0  0  0  0  0  0  0  0  0  0  0  0
    3.0542  -10.4092    0.0000 O   0  0  0  0  0  0  0  0  0  0  0  0
    1.6839   -9.7990    0.0000 C   0  0  0  0  0  0  0  0  0  0  0  0
    1.5271   -8.3073    0.0000 C   0  0  0  0  0  0  0  0  0  0  0  0
    2.7406   -7.4256    0.0000 C   0  0  0  0  0  0  0  0  0  0  0  0
    2.5838   -5.9338    0.0000 C   0  0  0  0  0  0  0  0  0  0  0  0
    1.2135   -5.3237    0.0000 C   0  0  0  0  0  0  0  0  0  0  0  0
   -0.0000   -6.2054    0.0000 N   0  0  0  0  0  0  0  0  0  0  0  0
    0.1568   -7.6972    0.0000 C   0  0  0  0  0  0  0  0  0  0  0  0
   -1.0567   -8.5788    0.0000 O   0  0  0  0  0  0  0  0  0  0  0  0
   -1.2135   -5.3237    0.0000 C   0  0  0  0  0  0  0  0  0  0  0  0
   -0.7500   -3.8971    0.0000 C   0  0  0  0  0  0  0  0  0  0  0  0
    0.7500   -3.8971    0.0000 C   0  0  0  0  0  0  0  0  0  0  0  0
    1.5000   -2.5981    0.0000 N   0  0  0  0  0  0  0  0  0  0  0  0
    0.7500   -1.2990    0.0000 C   0  0  0  0  0  0  0  0  0  0  0  0
    1.5000    0.0000    0.0000 C   0  0  0  0  0  0  0  0  0  0  0  0
    0.7500    1.2990    0.0000 C   0  0  0  0  0  0  0  0  0  0  0  0
   -0.7500    1.2990    0.0000 C   0  0  0  0  0  0  0  0  0  0  0  0
   -1.5000    0.0000    0.0000 C   0  0  0  0  0  0  0  0  0  0  0  0
   -0.7500   -1.2990    0.0000 C   0  0  0  0  0  0  0  0  0  0  0  0
   -1.5000   -2.5981    0.0000 C   0  0  0  0  0  0  0  0  0  0  0  0
   -3.0000   -2.5981    0.0000 C   0  0  0  0  0  0  0  0  0  0  0  0
   -3.7500   -1.2990    0.0000 N   0  0  0  0  0  0  0  0  0  0  0  0
   -5.2500   -1.2990    0.0000 O   0  0  0  0  0  0  0  0  0  0  0  0
   -6.0000   -0.0000    0.0000 C   0  0  0  0  0  0  0  0  0  0  0  0
   -7.2990   -0.7500    0.0000 C   0  0  0  0  0  0  0  0  0  0  0  0
   -4.7010    0.7500    0.0000 C   0  0  0  0  0  0  0  0  0  0  0  0
   -6.7500    1.2990    0.0000 C   0  0  0  0  0  0  0  0  0  0  0  0
  1  2  1  0
  2  3  1  0
  3  4  1  6
  3  5  1  0
  5  6  2  0
  5  7  1  0
  7  8  1  0
  8  9  1  0
  9 10  2  0
 10 11  1  0
 11 12  2  0
 12 13  1  0
 13 14  1  0
 14 15  2  0
 13 16  1  0
 16 17  1  0
 17 18  2  0
 18 19  1  0
 19 20  2  0
 20 21  1  0
 21 22  2  0
 22 23  1  0
 23 24  2  0
 24 25  1  0
 25 26  2  0
 26 27  1  0
 27 28  2  0
 28 29  1  0
 29 30  1  0
 30 31  1  0
 30 32  1  0
 30 33  1  0
 10  3  1  0
 18 12  1  0
 25 20  1  0
 14  9  1  0
 26 17  1  0
M  END
>  <Synonyms>  (530) 
GIMATECAN

>  <Research Codes>  (530) 
nan

>  <Phase>  (530) 
1

>  <Applicants>  (530) 
nan

>  <USAN Stem>  (530) 
'-tecan'

>  <USAN Year>  (530) 
nan

>  <USAN Stem Definition>  (530) 
antineoplastics (camptothecine derivatives)

>  <USAN Stem Substem>  (530) 
'-tecan(-tecan)'

>  <First Approval>  (530) 
nan

>  <ATC Codes>  (530) 
nan

>  <Level 4 ATC Codes>  (530) 
nan

>  <Level 3 ATC Codes>  (530) 
nan

>  <Level 2 ATC Codes>  (530) 
nan

>  <Level 1 ATC Codes>  (530) 
nan

>  <Indication Class>  (530) 
nan

>  <Patent>  (530) 
nan

>  <Drug Type>  (530) 
7:Natural Product-derived

>  <Passes Rule of Five>  (530) 
True

>  <First In Class>  (530) 
False

>  <Chirality>  (530) 
Single Stereoisomer

>  <Prodrug>  (530) 
False

>  <Oral>  (530) 
False

>  <Parenteral>  (530) 
False

>  <Topical>  (530) 
False

>  <Black Box>  (530) 
False

>  <Availability Type>  (530) 
Unknown

>  <Withdrawn Year>  (530) 
nan

>  <Withdrawn Reason>  (530) 
nan

>  <Withdrawn Country>  (530) 
nan

>  <Withdrawn Class>  (530) 
nan

>  <SMILES>  (530) 
CC[C@@]1(O)C(=O)OCc2c1cc1n(c2=O)Cc2c-1nc1ccccc1c2/C=N/OC(C)(C)C

>  <InChi Key>  (530) 
UIVFUQKYVFCEKJ-OPTOVBNMSA-N

$$$$
CHEMBL475717
     RDKit          2D

 18 19  0  0  0  0  0  0  0  0999 V2000
    3.0000    0.0000    0.0000 C   0  0  0  0  0  0  0  0  0  0  0  0
    1.5000    0.0000    0.0000 C   0  0  0  0  0  0  0  0  0  0  0  0
    0.7500   -1.2990    0.0000 C   0  0  0  0  0  0  0  0  0  0  0  0
   -0.7500   -1.2990    0.0000 N   0  0  0  0  0  0  0  0  0  0  0  0
   -1.5000   -2.5981    0.0000 C   0  0  0  0  0  0  0  0  0  0  0  0
   -0.8899   -3.9684    0.0000 O   0  0  0  0  0  0  0  0  0  0  0  0
   -2.0046   -4.9721    0.0000 C   0  0  0  0  0  0  0  0  0  0  0  0
   -1.8478   -6.4639    0.0000 C   0  0  0  0  0  0  0  0  0  0  0  0
   -3.0613   -7.3456    0.0000 O   0  0  0  0  0  0  0  0  0  0  0  0
   -3.3037   -4.2221    0.0000 C   0  0  0  0  0  0  0  0  0  0  0  0
   -4.6740   -4.8322    0.0000 O   0  0  0  0  0  0  0  0  0  0  0  0
   -2.9918   -2.7549    0.0000 C   0  0  0  0  0  0  0  0  0  0  0  0
   -3.9955   -1.6402    0.0000 F   0  0  0  0  0  0  0  0  0  0  0  0
   -1.5000    0.0000    0.0000 C   0  0  0  0  0  0  0  0  0  0  0  0
   -3.0000    0.0000    0.0000 O   0  0  0  0  0  0  0  0  0  0  0  0
   -0.7500    1.2990    0.0000 N   0  0  0  0  0  0  0  0  0  0  0  0
    0.7500    1.2990    0.0000 C   0  0  0  0  0  0  0  0  0  0  0  0
    1.5000    2.5981    0.0000 O   0  0  0  0  0  0  0  0  0  0  0  0
  1  2  1  0
  2  3  2  0
  3  4  1  0
  5  4  1  6
  5  6  1  0
  6  7  1  0
  7  8  1  6
  8  9  1  0
  7 10  1  0
 10 11  1  1
 10 12  1  0
 12 13  1  6
  4 14  1  0
 14 15  2  0
 14 16  1  0
 16 17  1  0
 17 18  2  0
 17  2  1  0
 12  5  1  0
M  END
>  <Synonyms>  (531) 
nan

>  <Research Codes>  (531) 
nan

>  <Phase>  (531) 
1

>  <Applicants>  (531) 
nan

>  <USAN Stem>  (531) 
'-racil; -uracil'

>  <USAN Year>  (531) 
nan

>  <USAN Stem Definition>  (531) 
uracil type antineoplastics; uracil derivatives used as thyroid antagonists and as antineoplastics

>  <USAN Stem Substem>  (531) 
'-racil(-racil); -uracil(-uracil)'

>  <First Approval>  (531) 
nan

>  <ATC Codes>  (531) 
nan

>  <Level 4 ATC Codes>  (531) 
nan

>  <Level 3 ATC Codes>  (531) 
nan

>  <Level 2 ATC Codes>  (531) 
nan

>  <Level 1 ATC Codes>  (531) 
nan

>  <Indication Class>  (531) 
nan

>  <Patent>  (531) 
nan

>  <Drug Type>  (531) 
7:Natural Product-derived

>  <Passes Rule of Five>  (531) 
True

>  <First In Class>  (531) 
False

>  <Chirality>  (531) 
Single Stereoisomer

>  <Prodrug>  (531) 
False

>  <Oral>  (531) 
False

>  <Parenteral>  (531) 
False

>  <Topical>  (531) 
False

>  <Black Box>  (531) 
False

>  <Availability Type>  (531) 
Unknown

>  <Withdrawn Year>  (531) 
nan

>  <Withdrawn Reason>  (531) 
nan

>  <Withdrawn Country>  (531) 
nan

>  <Withdrawn Class>  (531) 
nan

>  <SMILES>  (531) 
Cc1cn([C@@H]2O[C@H](CO)[C@@H](O)[C@@H]2F)c(=O)[nH]c1=O

>  <InChi Key>  (531) 
GBBJCSTXCAQSSJ-JVZYCSMKSA-N

$$$$
CHEMBL1182714
     RDKit          2D

 31 33  0  0  0  0  0  0  0  0999 V2000
   -7.5878   13.6448    0.0000 C   0  0  0  0  0  0  0  0  0  0  0  0
   -7.8997   12.1775    0.0000 N   0  0  0  0  0  0  0  0  0  0  0  0
   -6.7850   11.1738    0.0000 C   0  0  0  0  0  0  0  0  0  0  0  0
   -7.0969    9.7066    0.0000 C   0  0  0  0  0  0  0  0  0  0  0  0
   -5.9821    8.7029    0.0000 C   0  0  0  0  0  0  0  0  0  0  0  0
   -6.2940    7.2357    0.0000 O   0  0  0  0  0  0  0  0  0  0  0  0
   -5.1793    6.2320    0.0000 C   0  0  0  0  0  0  0  0  0  0  0  0
   -3.7527    6.6955    0.0000 C   0  0  0  0  0  0  0  0  0  0  0  0
   -2.6380    5.6918    0.0000 C   0  0  0  0  0  0  0  0  0  0  0  0
   -1.2114    6.1554    0.0000 F   0  0  0  0  0  0  0  0  0  0  0  0
   -2.9499    4.2246    0.0000 C   0  0  0  0  0  0  0  0  0  0  0  0
   -1.8351    3.2209    0.0000 C   0  0  0  0  0  0  0  0  0  0  0  0
   -0.4086    3.6844    0.0000 C   0  0  0  0  0  0  0  0  0  0  0  0
   -0.0967    5.1517    0.0000 Cl  0  0  0  0  0  0  0  0  0  0  0  0
    0.7062    2.6807    0.0000 N   0  0  0  0  0  0  0  0  0  0  0  0
    0.3943    1.2135    0.0000 C   0  0  0  0  0  0  0  0  0  0  0  0
    1.2760    0.0000    0.0000 N   0  0  0  0  0  0  0  0  0  0  0  0
    0.3943   -1.2135    0.0000 C   0  0  0  0  0  0  0  0  0  0  0  0
   -1.0323   -0.7500    0.0000 N   0  0  0  0  0  0  0  0  0  0  0  0
   -1.0323    0.7500    0.0000 N   0  0  0  0  0  0  0  0  0  0  0  0
   -2.1470    1.7537    0.0000 C   0  0  0  0  0  0  0  0  0  0  0  0
   -3.5736    1.2902    0.0000 N   0  0  0  0  0  0  0  0  0  0  0  0
   -3.8855   -0.1771    0.0000 C   0  0  0  0  0  0  0  0  0  0  0  0
   -5.3120   -0.6406    0.0000 C   0  0  0  0  0  0  0  0  0  0  0  0
   -2.7707   -1.1807    0.0000 C   0  0  0  0  0  0  0  0  0  0  0  0
   -1.6560   -2.1844    0.0000 F   0  0  0  0  0  0  0  0  0  0  0  0
   -3.7744   -2.2955    0.0000 F   0  0  0  0  0  0  0  0  0  0  0  0
   -1.7670   -0.0660    0.0000 F   0  0  0  0  0  0  0  0  0  0  0  0
   -4.3764    3.7611    0.0000 C   0  0  0  0  0  0  0  0  0  0  0  0
   -4.6883    2.2939    0.0000 F   0  0  0  0  0  0  0  0  0  0  0  0
   -5.4912    4.7648    0.0000 C   0  0  0  0  0  0  0  0  0  0  0  0
  1  2  1  0
  2  3  1  0
  3  4  1  0
  4  5  1  0
  5  6  1  0
  6  7  1  0
  7  8  2  0
  8  9  1  0
  9 10  1  0
  9 11  2  0
 11 12  1  0
 12 13  2  0
 13 14  1  0
 13 15  1  0
 15 16  1  0
 16 17  2  0
 17 18  1  0
 18 19  2  0
 19 20  1  0
 20 21  1  0
 21 22  2  3
 22 23  1  0
 23 24  1  6
 23 25  1  0
 25 26  1  0
 25 27  1  0
 25 28  1  0
 11 29  1  0
 29 30  1  0
 29 31  2  0
 31  7  1  0
 21 12  1  0
 20 16  1  0
M  END
>  <Synonyms>  (532) 
CEVIPABULIN

>  <Research Codes>  (532) 
nan

>  <Phase>  (532) 
1

>  <Applicants>  (532) 
nan

>  <USAN Stem>  (532) 
'-bulin'

>  <USAN Year>  (532) 
2005.0

>  <USAN Stem Definition>  (532) 
antineoplastics (mitotic inhibitors,tubulin binders

>  <USAN Stem Substem>  (532) 
'-bulin(-bulin)'

>  <First Approval>  (532) 
nan

>  <ATC Codes>  (532) 
nan

>  <Level 4 ATC Codes>  (532) 
nan

>  <Level 3 ATC Codes>  (532) 
nan

>  <Level 2 ATC Codes>  (532) 
nan

>  <Level 1 ATC Codes>  (532) 
nan

>  <Indication Class>  (532) 
nan

>  <Patent>  (532) 
nan

>  <Drug Type>  (532) 
1:Synthetic Small Molecule

>  <Passes Rule of Five>  (532) 
True

>  <First In Class>  (532) 
False

>  <Chirality>  (532) 
Single Stereoisomer

>  <Prodrug>  (532) 
False

>  <Oral>  (532) 
False

>  <Parenteral>  (532) 
False

>  <Topical>  (532) 
False

>  <Black Box>  (532) 
False

>  <Availability Type>  (532) 
Unknown

>  <Withdrawn Year>  (532) 
nan

>  <Withdrawn Reason>  (532) 
nan

>  <Withdrawn Country>  (532) 
nan

>  <Withdrawn Class>  (532) 
nan

>  <SMILES>  (532) 
CNCCCOc1cc(F)c(-c2c(Cl)nc3ncnn3c2N[C@@H](C)C(F)(F)F)c(F)c1

>  <InChi Key>  (532) 
ODTBOKDHTIXRKH-VIFPVBQESA-N

$$$$
CHEMBL3301620
     RDKit          2D

 35 39  0  0  0  0  0  0  0  0999 V2000
   -4.6883    2.2939    0.0000 C   0  0  0  0  0  0  0  0  0  0  0  0
   -3.5736    1.2902    0.0000 O   0  0  0  0  0  0  0  0  0  0  0  0
   -2.1470    1.7537    0.0000 C   0  0  0  0  0  0  0  0  0  0  0  0
   -1.8351    3.2209    0.0000 C   0  0  0  0  0  0  0  0  0  0  0  0
   -0.4086    3.6844    0.0000 N   0  0  0  0  0  0  0  0  0  0  0  0
    0.7062    2.6807    0.0000 C   0  0  0  0  0  0  0  0  0  0  0  0
    2.1328    3.1443    0.0000 N   0  0  0  0  0  0  0  0  0  0  0  0
    2.5963    4.5709    0.0000 C   0  0  0  0  0  0  0  0  0  0  0  0
    4.0963    4.5709    0.0000 N   0  0  0  0  0  0  0  0  0  0  0  0
    4.5598    3.1443    0.0000 C   0  0  0  0  0  0  0  0  0  0  0  0
    5.9864    2.6807    0.0000 C   0  0  0  0  0  0  0  0  0  0  0  0
    3.3463    2.2626    0.0000 N   0  0  0  0  0  0  0  0  0  0  0  0
    0.3943    1.2135    0.0000 C   0  0  0  0  0  0  0  0  0  0  0  0
    1.2760    0.0000    0.0000 N   0  0  0  0  0  0  0  0  0  0  0  0
    0.3943   -1.2135    0.0000 C   0  0  0  0  0  0  0  0  0  0  0  0
   -1.0323   -0.7500    0.0000 C   0  0  0  0  0  0  0  0  0  0  0  0
   -2.2458   -1.6317    0.0000 C   0  0  0  0  0  0  0  0  0  0  0  0
   -3.6161   -1.0216    0.0000 O   0  0  0  0  0  0  0  0  0  0  0  0
   -2.0890   -3.1235    0.0000 C   0  0  0  0  0  0  0  0  0  0  0  0
   -0.7187   -3.7336    0.0000 O   0  0  0  0  0  0  0  0  0  0  0  0
   -3.3025   -4.0051    0.0000 N   0  0  0  0  0  0  0  0  0  0  0  0
   -4.6729   -3.3950    0.0000 C   0  0  0  0  0  0  0  0  0  0  0  0
   -5.8864   -4.2767    0.0000 C   0  0  0  0  0  0  0  0  0  0  0  0
   -5.7296   -5.7685    0.0000 N   0  0  0  0  0  0  0  0  0  0  0  0
   -6.9431   -6.6502    0.0000 C   0  0  0  0  0  0  0  0  0  0  0  0
   -6.7863   -8.1420    0.0000 O   0  0  0  0  0  0  0  0  0  0  0  0
   -8.3134   -6.0401    0.0000 C   0  0  0  0  0  0  0  0  0  0  0  0
   -8.4702   -4.5483    0.0000 C   0  0  0  0  0  0  0  0  0  0  0  0
   -9.8406   -3.9382    0.0000 C   0  0  0  0  0  0  0  0  0  0  0  0
  -11.0541   -4.8199    0.0000 C   0  0  0  0  0  0  0  0  0  0  0  0
  -10.8973   -6.3116    0.0000 C   0  0  0  0  0  0  0  0  0  0  0  0
   -9.5270   -6.9217    0.0000 C   0  0  0  0  0  0  0  0  0  0  0  0
   -4.3593   -6.3786    0.0000 C   0  0  0  0  0  0  0  0  0  0  0  0
   -3.1458   -5.4969    0.0000 C   0  0  0  0  0  0  0  0  0  0  0  0
   -1.0323    0.7500    0.0000 C   0  0  0  0  0  0  0  0  0  0  0  0
  1  2  1  0
  2  3  1  0
  3  4  2  0
  4  5  1  0
  5  6  2  0
  6  7  1  0
  7  8  1  0
  8  9  2  0
  9 10  1  0
 10 11  1  0
 10 12  2  0
  6 13  1  0
 13 14  1  0
 14 15  1  0
 15 16  2  0
 16 17  1  0
 17 18  2  0
 17 19  1  0
 19 20  2  0
 19 21  1  0
 21 22  1  0
 22 23  1  0
 23 24  1  0
 24 25  1  0
 25 26  2  0
 25 27  1  0
 27 28  2  0
 28 29  1  0
 29 30  2  0
 30 31  1  0
 31 32  2  0
 24 33  1  0
 33 34  1  0
 16 35  1  0
 35  3  1  0
 12  7  1  0
 35 13  2  0
 34 21  1  0
 32 27  1  0
M  END
>  <Synonyms>  (533) 
BMS-626529|TEMSAVIR

>  <Research Codes>  (533) 
BMS-626529

>  <Phase>  (533) 
1

>  <Applicants>  (533) 
nan

>  <USAN Stem>  (533) 
'-vir'

>  <USAN Year>  (533) 
2014.0

>  <USAN Stem Definition>  (533) 
antivirals

>  <USAN Stem Substem>  (533) 
'-vir(-vir)'

>  <First Approval>  (533) 
nan

>  <ATC Codes>  (533) 
nan

>  <Level 4 ATC Codes>  (533) 
nan

>  <Level 3 ATC Codes>  (533) 
nan

>  <Level 2 ATC Codes>  (533) 
nan

>  <Level 1 ATC Codes>  (533) 
nan

>  <Indication Class>  (533) 
nan

>  <Patent>  (533) 
nan

>  <Drug Type>  (533) 
1:Synthetic Small Molecule

>  <Passes Rule of Five>  (533) 
True

>  <First In Class>  (533) 
False

>  <Chirality>  (533) 
Achiral Molecule

>  <Prodrug>  (533) 
False

>  <Oral>  (533) 
False

>  <Parenteral>  (533) 
False

>  <Topical>  (533) 
False

>  <Black Box>  (533) 
False

>  <Availability Type>  (533) 
Unknown

>  <Withdrawn Year>  (533) 
nan

>  <Withdrawn Reason>  (533) 
nan

>  <Withdrawn Country>  (533) 
nan

>  <Withdrawn Class>  (533) 
nan

>  <SMILES>  (533) 
COc1cnc(-n2cnc(C)n2)c2[nH]cc(C(=O)C(=O)N3CCN(C(=O)c4ccccc4)CC3)c12

>  <InChi Key>  (533) 
QRPZBKAMSFHVRW-UHFFFAOYSA-N

$$$$
CHEMBL200102
     RDKit          2D

 28 31  0  0  0  0  0  0  0  0999 V2000
   -8.8374   -1.1051    0.0000 C   0  0  0  0  0  0  0  0  0  0  0  0
   -7.7227   -2.1088    0.0000 C   0  0  0  0  0  0  0  0  0  0  0  0
   -8.0346   -3.5760    0.0000 C   0  0  0  0  0  0  0  0  0  0  0  0
   -6.2961   -1.6453    0.0000 N   0  0  0  0  0  0  0  0  0  0  0  0
   -5.1814   -2.6490    0.0000 C   0  0  0  0  0  0  0  0  0  0  0  0
   -3.7548   -2.1855    0.0000 C   0  0  0  0  0  0  0  0  0  0  0  0
   -2.6401   -3.1891    0.0000 C   0  0  0  0  0  0  0  0  0  0  0  0
   -1.2135   -2.7256    0.0000 N   0  0  0  0  0  0  0  0  0  0  0  0
   -0.0000   -3.6073    0.0000 C   0  0  0  0  0  0  0  0  0  0  0  0
   -0.0000   -5.1073    0.0000 S   0  0  0  0  0  0  0  0  0  0  0  0
   -1.2990   -5.8573    0.0000 C   0  0  0  0  0  0  0  0  0  0  0  0
   -2.5981   -5.1073    0.0000 C   0  0  0  0  0  0  0  0  0  0  0  0
   -3.8971   -5.8573    0.0000 C   0  0  0  0  0  0  0  0  0  0  0  0
   -3.8971   -7.3573    0.0000 C   0  0  0  0  0  0  0  0  0  0  0  0
   -2.5981   -8.1073    0.0000 C   0  0  0  0  0  0  0  0  0  0  0  0
   -1.2990   -7.3573    0.0000 C   0  0  0  0  0  0  0  0  0  0  0  0
   -0.0000   -8.1073    0.0000 I   0  0  0  0  0  0  0  0  0  0  0  0
   -5.3237   -7.8208    0.0000 O   0  0  0  0  0  0  0  0  0  0  0  0
   -6.2054   -6.6073    0.0000 C   0  0  0  0  0  0  0  0  0  0  0  0
   -5.3237   -5.3938    0.0000 O   0  0  0  0  0  0  0  0  0  0  0  0
    1.2135   -2.7256    0.0000 N   0  0  0  0  0  0  0  0  0  0  0  0
    0.7500   -1.2990    0.0000 C   0  0  0  0  0  0  0  0  0  0  0  0
    1.5000    0.0000    0.0000 C   0  0  0  0  0  0  0  0  0  0  0  0
    3.0000    0.0000    0.0000 N   0  0  0  0  0  0  0  0  0  0  0  0
    0.7500    1.2990    0.0000 N   0  0  0  0  0  0  0  0  0  0  0  0
   -0.7500    1.2990    0.0000 C   0  0  0  0  0  0  0  0  0  0  0  0
   -1.5000    0.0000    0.0000 N   0  0  0  0  0  0  0  0  0  0  0  0
   -0.7500   -1.2990    0.0000 C   0  0  0  0  0  0  0  0  0  0  0  0
  1  2  1  0
  2  3  1  0
  2  4  1  0
  4  5  1  0
  5  6  1  0
  6  7  1  0
  7  8  1  0
  8  9  1  0
  9 10  1  0
 10 11  1  0
 11 12  2  0
 12 13  1  0
 13 14  2  0
 14 15  1  0
 15 16  2  0
 16 17  1  0
 14 18  1  0
 18 19  1  0
 19 20  1  0
  9 21  2  0
 21 22  1  0
 22 23  1  0
 23 24  2  0
 23 25  1  0
 25 26  1  0
 26 27  2  0
 27 28  1  0
 28  8  1  0
 16 11  1  0
 28 22  2  0
 20 13  1  0
M  END
>  <Synonyms>  (534) 
PU-H 71|PU-H-71|PU-H71|PUH-71

>  <Research Codes>  (534) 
PU-H 71|PU-H-71|PU-H71|PUH-71

>  <Phase>  (534) 
1

>  <Applicants>  (534) 
nan

>  <USAN Stem>  (534) 
nan

>  <USAN Year>  (534) 
nan

>  <USAN Stem Definition>  (534) 
nan

>  <USAN Stem Substem>  (534) 
nan

>  <First Approval>  (534) 
nan

>  <ATC Codes>  (534) 
nan

>  <Level 4 ATC Codes>  (534) 
nan

>  <Level 3 ATC Codes>  (534) 
nan

>  <Level 2 ATC Codes>  (534) 
nan

>  <Level 1 ATC Codes>  (534) 
nan

>  <Indication Class>  (534) 
nan

>  <Patent>  (534) 
nan

>  <Drug Type>  (534) 
7:Natural Product-derived

>  <Passes Rule of Five>  (534) 
False

>  <First In Class>  (534) 
False

>  <Chirality>  (534) 
Achiral Molecule

>  <Prodrug>  (534) 
False

>  <Oral>  (534) 
False

>  <Parenteral>  (534) 
False

>  <Topical>  (534) 
False

>  <Black Box>  (534) 
False

>  <Availability Type>  (534) 
Unknown

>  <Withdrawn Year>  (534) 
nan

>  <Withdrawn Reason>  (534) 
nan

>  <Withdrawn Country>  (534) 
nan

>  <Withdrawn Class>  (534) 
nan

>  <SMILES>  (534) 
CC(C)NCCCn1c(Sc2cc3c(cc2I)OCO3)nc2c(N)ncnc21

>  <InChi Key>  (534) 
SUPVGFZUWFMATN-UHFFFAOYSA-N

$$$$
CHEMBL1684984
     RDKit          2D

 26 29  0  0  0  0  0  0  0  0999 V2000
    4.2760    0.0000    0.0000 C   0  0  0  0  0  0  0  0  0  0  0  0
    2.7760    0.0000    0.0000 S   0  0  0  0  0  0  0  0  0  0  0  0
    2.7760   -1.5000    0.0000 O   0  0  0  0  0  0  0  0  0  0  0  0
    2.7760    1.5000    0.0000 O   0  0  0  0  0  0  0  0  0  0  0  0
    1.2760    0.0000    0.0000 N   0  0  0  0  0  0  0  0  0  0  0  0
    0.3943    1.2135    0.0000 C   0  0  0  0  0  0  0  0  0  0  0  0
   -1.0323    0.7500    0.0000 C   0  0  0  0  0  0  0  0  0  0  0  0
   -1.0323   -0.7500    0.0000 C   0  0  0  0  0  0  0  0  0  0  0  0
   -2.1470   -1.7537    0.0000 C   0  0  0  0  0  0  0  0  0  0  0  0
   -3.5736   -1.2902    0.0000 C   0  0  0  0  0  0  0  0  0  0  0  0
   -3.8855    0.1771    0.0000 C   0  0  0  0  0  0  0  0  0  0  0  0
   -5.3120    0.6406    0.0000 N   0  0  0  0  0  0  0  0  0  0  0  0
   -6.4268   -0.3631    0.0000 C   0  0  0  0  0  0  0  0  0  0  0  0
   -7.8533    0.1004    0.0000 N   0  0  0  0  0  0  0  0  0  0  0  0
   -6.1149   -1.8303    0.0000 N   0  0  0  0  0  0  0  0  0  0  0  0
   -4.6883   -2.2939    0.0000 C   0  0  0  0  0  0  0  0  0  0  0  0
   -1.8351   -3.2209    0.0000 N   0  0  0  0  0  0  0  0  0  0  0  0
   -0.4086   -3.6844    0.0000 C   0  0  0  0  0  0  0  0  0  0  0  0
   -0.0967   -5.1517    0.0000 N   0  0  0  0  0  0  0  0  0  0  0  0
   -1.2114   -6.1554    0.0000 C   0  0  0  0  0  0  0  0  0  0  0  0
   -0.8995   -7.6226    0.0000 C   0  0  0  0  0  0  0  0  0  0  0  0
    0.5271   -8.0861    0.0000 O   0  0  0  0  0  0  0  0  0  0  0  0
    1.6418   -7.0824    0.0000 C   0  0  0  0  0  0  0  0  0  0  0  0
    1.3299   -5.6152    0.0000 C   0  0  0  0  0  0  0  0  0  0  0  0
    0.7062   -2.6807    0.0000 N   0  0  0  0  0  0  0  0  0  0  0  0
    0.3943   -1.2135    0.0000 C   0  0  0  0  0  0  0  0  0  0  0  0
  1  2  1  0
  2  3  2  0
  2  4  2  0
  2  5  1  0
  5  6  1  0
  6  7  1  0
  7  8  1  0
  8  9  2  0
  9 10  1  0
 10 11  2  0
 11 12  1  0
 12 13  1  0
 13 14  2  0
 13 15  1  0
 15 16  2  0
  9 17  1  0
 17 18  2  0
 18 19  1  0
 19 20  1  0
 20 21  1  0
 21 22  1  0
 22 23  1  0
 23 24  1  0
 18 25  1  0
 25 26  2  0
 26  5  1  0
 26  8  1  0
 16 10  1  0
 24 19  1  0
M  END
>  <Synonyms>  (535) 
CH-5132799|CH5132799|PA-799|PA799

>  <Research Codes>  (535) 
CH-5132799|CH5132799|PA-799|PA799

>  <Phase>  (535) 
1

>  <Applicants>  (535) 
nan

>  <USAN Stem>  (535) 
nan

>  <USAN Year>  (535) 
nan

>  <USAN Stem Definition>  (535) 
nan

>  <USAN Stem Substem>  (535) 
nan

>  <First Approval>  (535) 
nan

>  <ATC Codes>  (535) 
nan

>  <Level 4 ATC Codes>  (535) 
nan

>  <Level 3 ATC Codes>  (535) 
nan

>  <Level 2 ATC Codes>  (535) 
nan

>  <Level 1 ATC Codes>  (535) 
nan

>  <Indication Class>  (535) 
nan

>  <Patent>  (535) 
nan

>  <Drug Type>  (535) 
1:Synthetic Small Molecule

>  <Passes Rule of Five>  (535) 
True

>  <First In Class>  (535) 
False

>  <Chirality>  (535) 
Achiral Molecule

>  <Prodrug>  (535) 
False

>  <Oral>  (535) 
False

>  <Parenteral>  (535) 
False

>  <Topical>  (535) 
False

>  <Black Box>  (535) 
False

>  <Availability Type>  (535) 
Unknown

>  <Withdrawn Year>  (535) 
nan

>  <Withdrawn Reason>  (535) 
nan

>  <Withdrawn Country>  (535) 
nan

>  <Withdrawn Class>  (535) 
nan

>  <SMILES>  (535) 
CS(=O)(=O)N1CCc2c(-c3cnc(N)nc3)nc(N3CCOCC3)nc21

>  <InChi Key>  (535) 
JEGHXKRHKHPBJD-UHFFFAOYSA-N

$$$$
CHEMBL12543
     RDKit          2D

  7  7  0  0  0  0  0  0  0  0999 V2000
    2.7760    0.0000    0.0000 C   0  0  0  0  0  0  0  0  0  0  0  0
    1.2760    0.0000    0.0000 N   0  0  0  0  0  0  0  0  0  0  0  0
    0.3943    1.2135    0.0000 C   0  0  0  0  0  0  0  0  0  0  0  0
   -1.0323    0.7500    0.0000 C   0  0  0  0  0  0  0  0  0  0  0  0
   -1.0323   -0.7500    0.0000 C   0  0  0  0  0  0  0  0  0  0  0  0
    0.3943   -1.2135    0.0000 C   0  0  0  0  0  0  0  0  0  0  0  0
    0.8578   -2.6401    0.0000 O   0  0  0  0  0  0  0  0  0  0  0  0
  1  2  1  0
  2  3  1  0
  3  4  1  0
  4  5  1  0
  5  6  1  0
  6  7  2  0
  6  2  1  0
M  END
>  <Synonyms>  (536) 
1-METHYLPYRROLIDONE|METHYLPYRROLIDONE|N-METHYL-PYRROLIDONE|N-Methyl Pyrrolidinone|NSC-4594

>  <Research Codes>  (536) 
NSC-4594

>  <Phase>  (536) 
1

>  <Applicants>  (536) 
nan

>  <USAN Stem>  (536) 
nan

>  <USAN Year>  (536) 
nan

>  <USAN Stem Definition>  (536) 
nan

>  <USAN Stem Substem>  (536) 
nan

>  <First Approval>  (536) 
nan

>  <ATC Codes>  (536) 
nan

>  <Level 4 ATC Codes>  (536) 
nan

>  <Level 3 ATC Codes>  (536) 
nan

>  <Level 2 ATC Codes>  (536) 
nan

>  <Level 1 ATC Codes>  (536) 
nan

>  <Indication Class>  (536) 
nan

>  <Patent>  (536) 
nan

>  <Drug Type>  (536) 
1:Synthetic Small Molecule

>  <Passes Rule of Five>  (536) 
True

>  <First In Class>  (536) 
False

>  <Chirality>  (536) 
Achiral Molecule

>  <Prodrug>  (536) 
False

>  <Oral>  (536) 
False

>  <Parenteral>  (536) 
False

>  <Topical>  (536) 
False

>  <Black Box>  (536) 
False

>  <Availability Type>  (536) 
Unknown

>  <Withdrawn Year>  (536) 
nan

>  <Withdrawn Reason>  (536) 
nan

>  <Withdrawn Country>  (536) 
nan

>  <Withdrawn Class>  (536) 
nan

>  <SMILES>  (536) 
CN1CCCC1=O

>  <InChi Key>  (536) 
SECXISVLQFMRJM-UHFFFAOYSA-N

$$$$
CHEMBL598797
     RDKit          2D

 32 34  0  0  0  0  0  0  0  0999 V2000
    6.7500    1.2990    0.0000 C   0  0  0  0  0  0  0  0  0  0  0  0
    6.0000   -0.0000    0.0000 C   0  0  0  0  0  0  0  0  0  0  0  0
    5.2500   -1.2990    0.0000 C   0  0  0  0  0  0  0  0  0  0  0  0
    6.0000   -2.5981    0.0000 C   0  0  0  0  0  0  0  0  0  0  0  0
    5.2500   -3.8971    0.0000 C   0  0  0  0  0  0  0  0  0  0  0  0
    3.7500   -3.8971    0.0000 C   0  0  0  0  0  0  0  0  0  0  0  0
    3.0000   -2.5981    0.0000 C   0  0  0  0  0  0  0  0  0  0  0  0
    1.5000   -2.5981    0.0000 N   0  0  0  0  0  0  0  0  0  0  0  0
    0.7500   -1.2990    0.0000 C   0  0  0  0  0  0  0  0  0  0  0  0
    1.5000    0.0000    0.0000 N   0  0  0  0  0  0  0  0  0  0  0  0
    0.7500    1.2990    0.0000 C   0  0  0  0  0  0  0  0  0  0  0  0
   -0.7500    1.2990    0.0000 N   0  0  0  0  0  0  0  0  0  0  0  0
   -1.5000    0.0000    0.0000 C   0  0  0  0  0  0  0  0  0  0  0  0
   -3.0000    0.0000    0.0000 C   0  0  0  0  0  0  0  0  0  0  0  0
   -3.7500   -1.2990    0.0000 C   0  0  0  0  0  0  0  0  0  0  0  0
   -5.2500   -1.2990    0.0000 O   0  0  0  0  0  0  0  0  0  0  0  0
   -6.0000    0.0000    0.0000 C   0  0  0  0  0  0  0  0  0  0  0  0
   -3.0000   -2.5981    0.0000 C   0  0  0  0  0  0  0  0  0  0  0  0
   -3.7500   -3.8971    0.0000 O   0  0  0  0  0  0  0  0  0  0  0  0
   -3.0000   -5.1962    0.0000 C   0  0  0  0  0  0  0  0  0  0  0  0
   -3.7500   -6.4952    0.0000 C   0  0  0  0  0  0  0  0  0  0  0  0
   -3.0000   -7.7942    0.0000 C   0  0  0  0  0  0  0  0  0  0  0  0
   -3.7500   -9.0933    0.0000 C   0  0  0  0  0  0  0  0  0  0  0  0
   -3.0000  -10.3923    0.0000 C   0  0  0  0  0  0  0  0  0  0  0  0
   -3.7500  -11.6913    0.0000 C   0  0  0  0  0  0  0  0  0  0  0  0
   -3.0000  -12.9904    0.0000 C   0  0  0  0  0  0  0  0  0  0  0  0
   -1.5000  -12.9904    0.0000 O   0  0  0  0  0  0  0  0  0  0  0  0
   -3.7500  -14.2894    0.0000 N   0  0  0  0  0  0  0  0  0  0  0  0
   -3.0000  -15.5885    0.0000 O   0  0  0  0  0  0  0  0  0  0  0  0
   -1.5000   -2.5981    0.0000 C   0  0  0  0  0  0  0  0  0  0  0  0
   -0.7500   -1.2990    0.0000 C   0  0  0  0  0  0  0  0  0  0  0  0
    3.7500   -1.2990    0.0000 C   0  0  0  0  0  0  0  0  0  0  0  0
  1  2  3  0
  2  3  1  0
  3  4  2  0
  4  5  1  0
  5  6  2  0
  6  7  1  0
  7  8  1  0
  8  9  2  3
  9 10  1  0
 10 11  1  0
 11 12  2  0
 12 13  1  0
 13 14  2  0
 14 15  1  0
 15 16  1  0
 16 17  1  0
 15 18  2  0
 18 19  1  0
 19 20  1  0
 20 21  1  0
 21 22  1  0
 22 23  1  0
 23 24  1  0
 24 25  1  0
 25 26  1  0
 26 27  1  0
 26 28  2  3
 28 29  1  0
 18 30  1  0
 30 31  2  0
  7 32  2  0
 32  3  1  0
 31  9  1  0
 31 13  1  0
M  END
>  <Synonyms>  (537) 
CUDC 101|CUDC-101

>  <Research Codes>  (537) 
CUDC-101

>  <Phase>  (537) 
1

>  <Applicants>  (537) 
nan

>  <USAN Stem>  (537) 
nan

>  <USAN Year>  (537) 
nan

>  <USAN Stem Definition>  (537) 
nan

>  <USAN Stem Substem>  (537) 
nan

>  <First Approval>  (537) 
nan

>  <ATC Codes>  (537) 
nan

>  <Level 4 ATC Codes>  (537) 
nan

>  <Level 3 ATC Codes>  (537) 
nan

>  <Level 2 ATC Codes>  (537) 
nan

>  <Level 1 ATC Codes>  (537) 
nan

>  <Indication Class>  (537) 
nan

>  <Patent>  (537) 
nan

>  <Drug Type>  (537) 
1:Synthetic Small Molecule

>  <Passes Rule of Five>  (537) 
True

>  <First In Class>  (537) 
False

>  <Chirality>  (537) 
Achiral Molecule

>  <Prodrug>  (537) 
False

>  <Oral>  (537) 
False

>  <Parenteral>  (537) 
False

>  <Topical>  (537) 
False

>  <Black Box>  (537) 
False

>  <Availability Type>  (537) 
Unknown

>  <Withdrawn Year>  (537) 
nan

>  <Withdrawn Reason>  (537) 
nan

>  <Withdrawn Country>  (537) 
nan

>  <Withdrawn Class>  (537) 
nan

>  <SMILES>  (537) 
C#Cc1cccc(Nc2ncnc3cc(OC)c(OCCCCCCC(=O)NO)cc23)c1

>  <InChi Key>  (537) 
PLIVFNIUGLLCEK-UHFFFAOYSA-N

$$$$
CHEMBL449062
     RDKit          2D

 10 10  0  0  0  0  0  0  0  0999 V2000
    3.7500    1.2990    0.0000 C   0  0  0  0  0  0  0  0  0  0  0  0
    3.0000    0.0000    0.0000 C   0  0  0  0  0  0  0  0  0  0  0  0
    3.7500   -1.2990    0.0000 C   0  0  0  0  0  0  0  0  0  0  0  0
    1.5000    0.0000    0.0000 C   0  0  0  0  0  0  0  0  0  0  0  0
    0.7500   -1.2990    0.0000 C   0  0  0  0  0  0  0  0  0  0  0  0
   -0.7500   -1.2990    0.0000 C   0  0  0  0  0  0  0  0  0  0  0  0
   -1.5000    0.0000    0.0000 C   0  0  0  0  0  0  0  0  0  0  0  0
   -3.0000    0.0000    0.0000 C   0  0  0  0  0  0  0  0  0  0  0  0
   -0.7500    1.2990    0.0000 C   0  0  0  0  0  0  0  0  0  0  0  0
    0.7500    1.2990    0.0000 C   0  0  0  0  0  0  0  0  0  0  0  0
  1  2  2  0
  2  3  1  0
  4  2  1  1
  4  5  1  0
  5  6  1  0
  6  7  2  0
  7  8  1  0
  7  9  1  0
  9 10  1  0
 10  4  1  0
M  END
>  <Synonyms>  (538) 
D-LIMONENE|D-Limonene

>  <Research Codes>  (538) 
nan

>  <Phase>  (538) 
1

>  <Applicants>  (538) 
nan

>  <USAN Stem>  (538) 
nan

>  <USAN Year>  (538) 
nan

>  <USAN Stem Definition>  (538) 
nan

>  <USAN Stem Substem>  (538) 
nan

>  <First Approval>  (538) 
nan

>  <ATC Codes>  (538) 
nan

>  <Level 4 ATC Codes>  (538) 
nan

>  <Level 3 ATC Codes>  (538) 
nan

>  <Level 2 ATC Codes>  (538) 
nan

>  <Level 1 ATC Codes>  (538) 
nan

>  <Indication Class>  (538) 
nan

>  <Patent>  (538) 
nan

>  <Drug Type>  (538) 
1:Synthetic Small Molecule

>  <Passes Rule of Five>  (538) 
True

>  <First In Class>  (538) 
False

>  <Chirality>  (538) 
Single Stereoisomer

>  <Prodrug>  (538) 
False

>  <Oral>  (538) 
False

>  <Parenteral>  (538) 
False

>  <Topical>  (538) 
False

>  <Black Box>  (538) 
False

>  <Availability Type>  (538) 
Unknown

>  <Withdrawn Year>  (538) 
nan

>  <Withdrawn Reason>  (538) 
nan

>  <Withdrawn Country>  (538) 
nan

>  <Withdrawn Class>  (538) 
nan

>  <SMILES>  (538) 
C=C(C)[C@H]1CC=C(C)CC1

>  <InChi Key>  (538) 
XMGQYMWWDOXHJM-JTQLQIEISA-N

$$$$
CHEMBL3633802
     RDKit          2D

 29 32  0  0  0  0  0  0  0  0999 V2000
   -2.9499    4.2246    0.0000 C   0  0  0  0  0  0  0  0  0  0  0  0
   -1.8351    3.2209    0.0000 N   0  0  0  0  0  0  0  0  0  0  0  0
   -2.1470    1.7537    0.0000 C   0  0  0  0  0  0  0  0  0  0  0  0
   -3.5736    1.2902    0.0000 O   0  0  0  0  0  0  0  0  0  0  0  0
   -1.0323    0.7500    0.0000 C   0  0  0  0  0  0  0  0  0  0  0  0
    0.3943    1.2135    0.0000 C   0  0  0  0  0  0  0  0  0  0  0  0
    1.2760    0.0000    0.0000 N   0  0  0  0  0  0  0  0  0  0  0  0
    0.3943   -1.2135    0.0000 C   0  0  0  0  0  0  0  0  0  0  0  0
   -1.0323   -0.7500    0.0000 N   0  0  0  0  0  0  0  0  0  0  0  0
   -2.2458   -1.6317    0.0000 C   0  0  0  0  0  0  0  0  0  0  0  0
   -2.0890   -3.1235    0.0000 C   0  0  0  0  0  0  0  0  0  0  0  0
   -0.7187   -3.7336    0.0000 O   0  0  0  0  0  0  0  0  0  0  0  0
   -3.3025   -4.0051    0.0000 N   0  0  0  0  0  0  0  0  0  0  0  0
   -3.1458   -5.4969    0.0000 C   0  0  0  0  0  0  0  0  0  0  0  0
   -4.3593   -6.3786    0.0000 C   0  0  0  0  0  0  0  0  0  0  0  0
   -4.2025   -7.8704    0.0000 C   0  0  0  0  0  0  0  0  0  0  0  0
   -2.8322   -8.4805    0.0000 C   0  0  0  0  0  0  0  0  0  0  0  0
   -2.6754   -9.9723    0.0000 C   0  0  0  0  0  0  0  0  0  0  0  0
   -3.8889  -10.8539    0.0000 C   0  0  0  0  0  0  0  0  0  0  0  0
   -3.7321  -12.3457    0.0000 C   0  0  0  0  0  0  0  0  0  0  0  0
   -2.3618  -12.9558    0.0000 C   0  0  0  0  0  0  0  0  0  0  0  0
   -1.1483  -12.0742    0.0000 C   0  0  0  0  0  0  0  0  0  0  0  0
   -1.3051  -10.5824    0.0000 C   0  0  0  0  0  0  0  0  0  0  0  0
   -1.6186   -7.5988    0.0000 N   0  0  0  0  0  0  0  0  0  0  0  0
   -1.7754   -6.1070    0.0000 N   0  0  0  0  0  0  0  0  0  0  0  0
    0.7062    2.6807    0.0000 N   0  0  0  0  0  0  0  0  0  0  0  0
    2.1328    3.1443    0.0000 C   0  0  0  0  0  0  0  0  0  0  0  0
   -0.4086    3.6844    0.0000 C   0  0  0  0  0  0  0  0  0  0  0  0
   -0.0967    5.1517    0.0000 O   0  0  0  0  0  0  0  0  0  0  0  0
  1  2  1  0
  2  3  1  0
  3  4  2  0
  3  5  1  0
  5  6  2  0
  6  7  1  0
  7  8  2  0
  8  9  1  0
  9 10  1  0
 10 11  1  0
 11 12  2  0
 11 13  1  0
 13 14  2  3
 14 15  1  0
 15 16  2  0
 16 17  1  0
 17 18  1  0
 18 19  2  0
 19 20  1  0
 20 21  2  0
 21 22  1  0
 22 23  2  0
 17 24  2  0
 24 25  1  0
  6 26  1  0
 26 27  1  0
 26 28  1  0
 28 29  2  0
 28  2  1  0
  9  5  1  0
 25 14  1  0
 23 18  1  0
M  END
>  <Synonyms>  (539) 
ETC-159|ETC-1922159

>  <Research Codes>  (539) 
nan

>  <Phase>  (539) 
1

>  <Applicants>  (539) 
nan

>  <USAN Stem>  (539) 
nan

>  <USAN Year>  (539) 
nan

>  <USAN Stem Definition>  (539) 
nan

>  <USAN Stem Substem>  (539) 
nan

>  <First Approval>  (539) 
nan

>  <ATC Codes>  (539) 
nan

>  <Level 4 ATC Codes>  (539) 
nan

>  <Level 3 ATC Codes>  (539) 
nan

>  <Level 2 ATC Codes>  (539) 
nan

>  <Level 1 ATC Codes>  (539) 
nan

>  <Indication Class>  (539) 
nan

>  <Patent>  (539) 
nan

>  <Drug Type>  (539) 
7:Natural Product-derived

>  <Passes Rule of Five>  (539) 
True

>  <First In Class>  (539) 
False

>  <Chirality>  (539) 
Achiral Molecule

>  <Prodrug>  (539) 
False

>  <Oral>  (539) 
False

>  <Parenteral>  (539) 
False

>  <Topical>  (539) 
False

>  <Black Box>  (539) 
False

>  <Availability Type>  (539) 
Unknown

>  <Withdrawn Year>  (539) 
nan

>  <Withdrawn Reason>  (539) 
nan

>  <Withdrawn Country>  (539) 
nan

>  <Withdrawn Class>  (539) 
nan

>  <SMILES>  (539) 
Cn1c(=O)c2c(ncn2CC(=O)Nc2ccc(-c3ccccc3)nn2)n(C)c1=O

>  <InChi Key>  (539) 
QTRXIFVSTWXRJJ-UHFFFAOYSA-N

$$$$
CHEMBL1614725
     RDKit          2D

 38 41  0  0  0  0  0  0  0  0999 V2000
   -4.9617   -8.8297    0.0000 C   0  0  0  0  0  0  0  0  0  0  0  0
   -6.4289   -8.5179    0.0000 C   0  0  0  0  0  0  0  0  0  0  0  0
   -7.8961   -8.2060    0.0000 C   0  0  0  0  0  0  0  0  0  0  0  0
   -6.7407   -9.9851    0.0000 O   0  0  0  0  0  0  0  0  0  0  0  0
   -6.1170   -7.0506    0.0000 C   0  0  0  0  0  0  0  0  0  0  0  0
   -4.6904   -6.5871    0.0000 C   0  0  0  0  0  0  0  0  0  0  0  0
   -3.5757   -7.5908    0.0000 O   0  0  0  0  0  0  0  0  0  0  0  0
   -4.3786   -5.1199    0.0000 N   0  0  0  0  0  0  0  0  0  0  0  0
   -2.9520   -4.6564    0.0000 C   0  0  0  0  0  0  0  0  0  0  0  0
   -2.6401   -3.1891    0.0000 C   0  0  0  0  0  0  0  0  0  0  0  0
   -1.2135   -2.7256    0.0000 N   0  0  0  0  0  0  0  0  0  0  0  0
   -0.0000   -3.6073    0.0000 C   0  0  0  0  0  0  0  0  0  0  0  0
    1.2135   -2.7256    0.0000 C   0  0  0  0  0  0  0  0  0  0  0  0
    0.7500   -1.2990    0.0000 C   0  0  0  0  0  0  0  0  0  0  0  0
    1.5000    0.0000    0.0000 N   0  0  0  0  0  0  0  0  0  0  0  0
    0.7500    1.2990    0.0000 C   0  0  0  0  0  0  0  0  0  0  0  0
   -0.7500    1.2990    0.0000 N   0  0  0  0  0  0  0  0  0  0  0  0
   -1.5000    0.0000    0.0000 C   0  0  0  0  0  0  0  0  0  0  0  0
   -3.0000    0.0000    0.0000 N   0  0  0  0  0  0  0  0  0  0  0  0
   -3.7500    1.2990    0.0000 C   0  0  0  0  0  0  0  0  0  0  0  0
   -3.0000    2.5981    0.0000 C   0  0  0  0  0  0  0  0  0  0  0  0
   -3.7500    3.8971    0.0000 C   0  0  0  0  0  0  0  0  0  0  0  0
   -5.2500    3.8971    0.0000 C   0  0  0  0  0  0  0  0  0  0  0  0
   -6.0000    5.1962    0.0000 O   0  0  0  0  0  0  0  0  0  0  0  0
   -5.2500    6.4952    0.0000 C   0  0  0  0  0  0  0  0  0  0  0  0
   -3.7500    6.4952    0.0000 C   0  0  0  0  0  0  0  0  0  0  0  0
   -3.0000    7.7942    0.0000 C   0  0  0  0  0  0  0  0  0  0  0  0
   -3.7500    9.0933    0.0000 C   0  0  0  0  0  0  0  0  0  0  0  0
   -5.2500    9.0933    0.0000 C   0  0  0  0  0  0  0  0  0  0  0  0
   -6.0000   10.3923    0.0000 C   0  0  0  0  0  0  0  0  0  0  0  0
   -6.7500   11.6913    0.0000 F   0  0  0  0  0  0  0  0  0  0  0  0
   -4.7010   11.1423    0.0000 F   0  0  0  0  0  0  0  0  0  0  0  0
   -7.2990    9.6423    0.0000 F   0  0  0  0  0  0  0  0  0  0  0  0
   -6.0000    7.7942    0.0000 C   0  0  0  0  0  0  0  0  0  0  0  0
   -6.0000    2.5981    0.0000 C   0  0  0  0  0  0  0  0  0  0  0  0
   -7.5000    2.5981    0.0000 Cl  0  0  0  0  0  0  0  0  0  0  0  0
   -5.2500    1.2990    0.0000 C   0  0  0  0  0  0  0  0  0  0  0  0
   -0.7500   -1.2990    0.0000 C   0  0  0  0  0  0  0  0  0  0  0  0
  1  2  1  0
  2  3  1  0
  2  4  1  0
  2  5  1  0
  5  6  1  0
  6  7  2  0
  6  8  1  0
  8  9  1  0
  9 10  1  0
 10 11  1  0
 11 12  1  0
 12 13  2  0
 13 14  1  0
 14 15  1  0
 15 16  1  0
 16 17  2  0
 17 18  1  0
 18 19  2  3
 19 20  1  0
 20 21  2  0
 21 22  1  0
 22 23  2  0
 23 24  1  0
 24 25  1  0
 25 26  2  0
 26 27  1  0
 27 28  2  0
 28 29  1  0
 29 30  1  0
 30 31  1  0
 30 32  1  0
 30 33  1  0
 29 34  2  0
 23 35  1  0
 35 36  1  0
 35 37  2  0
 18 38  1  0
 38 11  1  0
 38 14  2  0
 37 20  1  0
 34 25  1  0
M  END
>  <Synonyms>  (540) 
TAK 285|TAK-285

>  <Research Codes>  (540) 
TAK-285

>  <Phase>  (540) 
1

>  <Applicants>  (540) 
nan

>  <USAN Stem>  (540) 
nan

>  <USAN Year>  (540) 
nan

>  <USAN Stem Definition>  (540) 
nan

>  <USAN Stem Substem>  (540) 
nan

>  <First Approval>  (540) 
nan

>  <ATC Codes>  (540) 
nan

>  <Level 4 ATC Codes>  (540) 
nan

>  <Level 3 ATC Codes>  (540) 
nan

>  <Level 2 ATC Codes>  (540) 
nan

>  <Level 1 ATC Codes>  (540) 
nan

>  <Indication Class>  (540) 
nan

>  <Patent>  (540) 
nan

>  <Drug Type>  (540) 
1:Synthetic Small Molecule

>  <Passes Rule of Five>  (540) 
False

>  <First In Class>  (540) 
False

>  <Chirality>  (540) 
Achiral Molecule

>  <Prodrug>  (540) 
False

>  <Oral>  (540) 
False

>  <Parenteral>  (540) 
False

>  <Topical>  (540) 
False

>  <Black Box>  (540) 
False

>  <Availability Type>  (540) 
Unknown

>  <Withdrawn Year>  (540) 
nan

>  <Withdrawn Reason>  (540) 
nan

>  <Withdrawn Country>  (540) 
nan

>  <Withdrawn Class>  (540) 
nan

>  <SMILES>  (540) 
CC(C)(O)CC(=O)NCCn1ccc2ncnc(Nc3ccc(Oc4cccc(C(F)(F)F)c4)c(Cl)c3)c21

>  <InChi Key>  (540) 
ZYQXEVJIFYIBHZ-UHFFFAOYSA-N

$$$$
CHEMBL406381
     RDKit          2D

 29 31  0  0  0  0  0  0  0  0999 V2000
   12.7500   -6.4952    0.0000 C   0  0  0  0  0  0  0  0  0  0  0  0
   12.0000   -5.1962    0.0000 C   0  0  0  0  0  0  0  0  0  0  0  0
   10.5000   -5.1962    0.0000 C   0  0  0  0  0  0  0  0  0  0  0  0
    9.7500   -3.8971    0.0000 N   0  0  0  0  0  0  0  0  0  0  0  0
    8.2500   -3.8971    0.0000 C   0  0  0  0  0  0  0  0  0  0  0  0
    7.5000   -5.1962    0.0000 O   0  0  0  0  0  0  0  0  0  0  0  0
    7.5000   -2.5981    0.0000 N   0  0  0  0  0  0  0  0  0  0  0  0
    6.0000   -2.5981    0.0000 C   0  0  0  0  0  0  0  0  0  0  0  0
    5.2500   -3.8971    0.0000 C   0  0  0  0  0  0  0  0  0  0  0  0
    3.7500   -3.8971    0.0000 C   0  0  0  0  0  0  0  0  0  0  0  0
    3.0000   -2.5981    0.0000 C   0  0  0  0  0  0  0  0  0  0  0  0
    1.5000   -2.5981    0.0000 O   0  0  0  0  0  0  0  0  0  0  0  0
    0.7500   -1.2990    0.0000 C   0  0  0  0  0  0  0  0  0  0  0  0
    1.5000    0.0000    0.0000 N   0  0  0  0  0  0  0  0  0  0  0  0
    0.7500    1.2990    0.0000 C   0  0  0  0  0  0  0  0  0  0  0  0
   -0.7500    1.2990    0.0000 N   0  0  0  0  0  0  0  0  0  0  0  0
   -1.5000    0.0000    0.0000 C   0  0  0  0  0  0  0  0  0  0  0  0
   -3.0000    0.0000    0.0000 C   0  0  0  0  0  0  0  0  0  0  0  0
   -3.7500   -1.2990    0.0000 C   0  0  0  0  0  0  0  0  0  0  0  0
   -5.2500   -1.2990    0.0000 O   0  0  0  0  0  0  0  0  0  0  0  0
   -6.0000    0.0000    0.0000 C   0  0  0  0  0  0  0  0  0  0  0  0
   -3.0000   -2.5981    0.0000 C   0  0  0  0  0  0  0  0  0  0  0  0
   -3.7500   -3.8971    0.0000 O   0  0  0  0  0  0  0  0  0  0  0  0
   -3.0000   -5.1962    0.0000 C   0  0  0  0  0  0  0  0  0  0  0  0
   -1.5000   -2.5981    0.0000 C   0  0  0  0  0  0  0  0  0  0  0  0
   -0.7500   -1.2990    0.0000 C   0  0  0  0  0  0  0  0  0  0  0  0
    3.7500   -1.2990    0.0000 C   0  0  0  0  0  0  0  0  0  0  0  0
    5.2500   -1.2990    0.0000 C   0  0  0  0  0  0  0  0  0  0  0  0
    6.0000   -0.0000    0.0000 Cl  0  0  0  0  0  0  0  0  0  0  0  0
  1  2  1  0
  2  3  1  0
  3  4  1  0
  4  5  1  0
  5  6  2  0
  5  7  1  0
  7  8  1  0
  8  9  2  0
  9 10  1  0
 10 11  2  0
 11 12  1  0
 12 13  1  0
 13 14  2  0
 14 15  1  0
 15 16  2  0
 16 17  1  0
 17 18  2  0
 18 19  1  0
 19 20  1  0
 20 21  1  0
 19 22  2  0
 22 23  1  0
 23 24  1  0
 22 25  1  0
 25 26  2  0
 11 27  1  0
 27 28  2  0
 28 29  1  0
 28  8  1  0
 26 13  1  0
 26 17  1  0
M  END
>  <Synonyms>  (541) 
KRN-633

>  <Research Codes>  (541) 
KRN-633

>  <Phase>  (541) 
1

>  <Applicants>  (541) 
nan

>  <USAN Stem>  (541) 
nan

>  <USAN Year>  (541) 
nan

>  <USAN Stem Definition>  (541) 
nan

>  <USAN Stem Substem>  (541) 
nan

>  <First Approval>  (541) 
nan

>  <ATC Codes>  (541) 
nan

>  <Level 4 ATC Codes>  (541) 
nan

>  <Level 3 ATC Codes>  (541) 
nan

>  <Level 2 ATC Codes>  (541) 
nan

>  <Level 1 ATC Codes>  (541) 
nan

>  <Indication Class>  (541) 
nan

>  <Patent>  (541) 
nan

>  <Drug Type>  (541) 
1:Synthetic Small Molecule

>  <Passes Rule of Five>  (541) 
True

>  <First In Class>  (541) 
False

>  <Chirality>  (541) 
Achiral Molecule

>  <Prodrug>  (541) 
False

>  <Oral>  (541) 
False

>  <Parenteral>  (541) 
False

>  <Topical>  (541) 
False

>  <Black Box>  (541) 
False

>  <Availability Type>  (541) 
Unknown

>  <Withdrawn Year>  (541) 
nan

>  <Withdrawn Reason>  (541) 
nan

>  <Withdrawn Country>  (541) 
nan

>  <Withdrawn Class>  (541) 
nan

>  <SMILES>  (541) 
CCCNC(=O)Nc1ccc(Oc2ncnc3cc(OC)c(OC)cc23)cc1Cl

>  <InChi Key>  (541) 
VPBYZLCHOKSGRX-UHFFFAOYSA-N

$$$$
CHEMBL2392545
     RDKit          2D

 40 44  0  0  0  0  0  0  0  0999 V2000
    3.7500   -6.4952    0.0000 C   0  0  0  0  0  0  0  0  0  0  0  0
    3.0000   -5.1962    0.0000 O   0  0  0  0  0  0  0  0  0  0  0  0
    1.5000   -5.1962    0.0000 C   0  0  0  0  0  0  0  0  0  0  0  0
    0.7500   -6.4952    0.0000 C   0  0  0  0  0  0  0  0  0  0  0  0
   -0.7500   -6.4952    0.0000 C   0  0  0  0  0  0  0  0  0  0  0  0
   -1.5000   -7.7942    0.0000 C   0  0  0  0  0  0  0  0  0  0  0  0
   -0.7500   -9.0933    0.0000 O   0  0  0  0  0  0  0  0  0  0  0  0
   -3.0000   -7.7942    0.0000 N   0  0  0  0  0  0  0  0  0  0  0  0
   -3.7500   -9.0933    0.0000 C   0  0  0  0  0  0  0  0  0  0  0  0
   -5.2500   -9.0933    0.0000 C   0  0  0  0  0  0  0  0  0  0  0  0
   -6.0000  -10.3923    0.0000 C   0  0  0  0  0  0  0  0  0  0  0  0
   -5.2500  -11.6913    0.0000 N   0  0  0  0  0  0  0  0  0  0  0  0
   -6.0000  -12.9904    0.0000 C   0  0  0  0  0  0  0  0  0  0  0  0
   -3.7500  -11.6913    0.0000 C   0  0  0  0  0  0  0  0  0  0  0  0
   -3.0000  -10.3923    0.0000 C   0  0  0  0  0  0  0  0  0  0  0  0
   -1.5000   -5.1962    0.0000 C   0  0  0  0  0  0  0  0  0  0  0  0
   -3.0000   -5.1962    0.0000 F   0  0  0  0  0  0  0  0  0  0  0  0
   -0.7500   -3.8971    0.0000 C   0  0  0  0  0  0  0  0  0  0  0  0
    0.7500   -3.8971    0.0000 C   0  0  0  0  0  0  0  0  0  0  0  0
    1.5000   -2.5981    0.0000 N   0  0  0  0  0  0  0  0  0  0  0  0
    0.7500   -1.2990    0.0000 C   0  0  0  0  0  0  0  0  0  0  0  0
    1.5000    0.0000    0.0000 N   0  0  0  0  0  0  0  0  0  0  0  0
    0.7500    1.2990    0.0000 C   0  0  0  0  0  0  0  0  0  0  0  0
   -0.7500    1.2990    0.0000 C   0  0  0  0  0  0  0  0  0  0  0  0
   -1.5000    0.0000    0.0000 C   0  0  0  0  0  0  0  0  0  0  0  0
   -0.7500   -1.2990    0.0000 N   0  0  0  0  0  0  0  0  0  0  0  0
   -2.9832   -0.2236    0.0000 N   0  0  0  0  0  0  0  0  0  0  0  0
   -3.4254   -1.6569    0.0000 C   0  0  0  0  0  0  0  0  0  0  0  0
   -2.5256   -2.8571    0.0000 C   0  0  0  0  0  0  0  0  0  0  0  0
   -3.3891   -4.0837    0.0000 C   0  0  0  0  0  0  0  0  0  0  0  0
   -4.8224   -3.6416    0.0000 C   0  0  0  0  0  0  0  0  0  0  0  0
   -4.8449   -2.1417    0.0000 C   0  0  0  0  0  0  0  0  0  0  0  0
   -4.0828    0.7967    0.0000 C   0  0  0  0  0  0  0  0  0  0  0  0
   -3.9707    2.2925    0.0000 C   0  0  0  0  0  0  0  0  0  0  0  0
   -5.4540    2.0689    0.0000 F   0  0  0  0  0  0  0  0  0  0  0  0
   -4.5187    3.6888    0.0000 F   0  0  0  0  0  0  0  0  0  0  0  0
   -2.7314    3.1375    0.0000 C   0  0  0  0  0  0  0  0  0  0  0  0
   -2.9549    4.6207    0.0000 O   0  0  0  0  0  0  0  0  0  0  0  0
   -1.2980    2.6953    0.0000 N   0  0  0  0  0  0  0  0  0  0  0  0
   -0.2778    3.7949    0.0000 C   0  0  0  0  0  0  0  0  0  0  0  0
  1  2  1  0
  2  3  1  0
  3  4  2  0
  4  5  1  0
  5  6  1  0
  6  7  2  0
  6  8  1  0
  8  9  1  0
  9 10  1  0
 10 11  1  0
 11 12  1  0
 12 13  1  0
 12 14  1  0
 14 15  1  0
  5 16  2  0
 16 17  1  0
 16 18  1  0
 18 19  2  0
 19 20  1  0
 20 21  2  3
 21 22  1  0
 22 23  1  0
 23 24  2  0
 24 25  1  0
 25 26  2  0
 25 27  1  0
 27 28  1  0
 28 29  1  0
 29 30  1  0
 30 31  1  0
 31 32  1  0
 27 33  1  0
 33 34  1  0
 34 35  1  0
 34 36  1  0
 34 37  1  0
 37 38  2  0
 37 39  1  0
 39 40  1  0
 19  3  1  0
 26 21  1  0
 32 28  1  0
 15  9  1  0
 39 24  1  0
M  END
>  <Synonyms>  (542) 
TAK-960|TAK960

>  <Research Codes>  (542) 
TAK-960|TAK960

>  <Phase>  (542) 
1

>  <Applicants>  (542) 
nan

>  <USAN Stem>  (542) 
nan

>  <USAN Year>  (542) 
nan

>  <USAN Stem Definition>  (542) 
nan

>  <USAN Stem Substem>  (542) 
nan

>  <First Approval>  (542) 
nan

>  <ATC Codes>  (542) 
nan

>  <Level 4 ATC Codes>  (542) 
nan

>  <Level 3 ATC Codes>  (542) 
nan

>  <Level 2 ATC Codes>  (542) 
nan

>  <Level 1 ATC Codes>  (542) 
nan

>  <Indication Class>  (542) 
nan

>  <Patent>  (542) 
nan

>  <Drug Type>  (542) 
1:Synthetic Small Molecule

>  <Passes Rule of Five>  (542) 
False

>  <First In Class>  (542) 
False

>  <Chirality>  (542) 
Achiral Molecule

>  <Prodrug>  (542) 
False

>  <Oral>  (542) 
False

>  <Parenteral>  (542) 
False

>  <Topical>  (542) 
False

>  <Black Box>  (542) 
False

>  <Availability Type>  (542) 
Unknown

>  <Withdrawn Year>  (542) 
nan

>  <Withdrawn Reason>  (542) 
nan

>  <Withdrawn Country>  (542) 
nan

>  <Withdrawn Class>  (542) 
nan

>  <SMILES>  (542) 
COc1cc(C(=O)NC2CCN(C)CC2)c(F)cc1Nc1ncc2c(n1)N(C1CCCC1)CC(F)(F)C(=O)N2C

>  <InChi Key>  (542) 
GWRSATNRNFYMDI-UHFFFAOYSA-N

$$$$
CHEMBL1615025
     RDKit          2D

 28 30  0  0  0  0  0  0  0  0999 V2000
   -3.0000   -2.5981    0.0000 C   0  0  0  0  0  0  0  0  0  0  0  0
   -1.5000   -2.5981    0.0000 N   0  0  0  0  0  0  0  0  0  0  0  0
   -0.7500   -3.8971    0.0000 C   0  0  0  0  0  0  0  0  0  0  0  0
   -1.5000   -5.1962    0.0000 O   0  0  0  0  0  0  0  0  0  0  0  0
    0.7500   -3.8971    0.0000 C   0  0  0  0  0  0  0  0  0  0  0  0
    1.5000   -5.1962    0.0000 F   0  0  0  0  0  0  0  0  0  0  0  0
    1.5000   -2.5981    0.0000 C   0  0  0  0  0  0  0  0  0  0  0  0
    3.0000   -2.5981    0.0000 N   0  0  0  0  0  0  0  0  0  0  0  0
    3.7500   -3.8971    0.0000 C   0  0  0  0  0  0  0  0  0  0  0  0
    3.0000   -5.1962    0.0000 C   0  0  0  0  0  0  0  0  0  0  0  0
    3.7500   -6.4952    0.0000 C   0  0  0  0  0  0  0  0  0  0  0  0
    5.2500   -6.4952    0.0000 C   0  0  0  0  0  0  0  0  0  0  0  0
    6.0000   -7.7942    0.0000 I   0  0  0  0  0  0  0  0  0  0  0  0
    6.0000   -5.1962    0.0000 C   0  0  0  0  0  0  0  0  0  0  0  0
    5.2500   -3.8971    0.0000 C   0  0  0  0  0  0  0  0  0  0  0  0
    6.0000   -2.5981    0.0000 F   0  0  0  0  0  0  0  0  0  0  0  0
    0.7500   -1.2990    0.0000 C   0  0  0  0  0  0  0  0  0  0  0  0
    1.5000    0.0000    0.0000 C   0  0  0  0  0  0  0  0  0  0  0  0
    3.0000    0.0000    0.0000 O   0  0  0  0  0  0  0  0  0  0  0  0
    0.7500    1.2990    0.0000 N   0  0  0  0  0  0  0  0  0  0  0  0
    1.5000    2.5981    0.0000 C   0  0  0  0  0  0  0  0  0  0  0  0
    0.7500    3.8971    0.0000 C   0  0  0  0  0  0  0  0  0  0  0  0
   -0.7500    3.8971    0.0000 O   0  0  0  0  0  0  0  0  0  0  0  0
    1.5000    5.1962    0.0000 C   0  0  0  0  0  0  0  0  0  0  0  0
    0.7500    6.4952    0.0000 O   0  0  0  0  0  0  0  0  0  0  0  0
   -0.7500    1.2990    0.0000 C   0  0  0  0  0  0  0  0  0  0  0  0
   -1.5000    0.0000    0.0000 N   0  0  0  0  0  0  0  0  0  0  0  0
   -0.7500   -1.2990    0.0000 C   0  0  0  0  0  0  0  0  0  0  0  0
  1  2  1  0
  2  3  1  0
  3  4  2  0
  3  5  1  0
  5  6  1  0
  5  7  2  0
  7  8  1  0
  8  9  1  0
  9 10  2  0
 10 11  1  0
 11 12  2  0
 12 13  1  0
 12 14  1  0
 14 15  2  0
 15 16  1  0
  7 17  1  0
 17 18  1  0
 18 19  2  0
 18 20  1  0
 20 21  1  0
 21 22  1  0
 22 23  1  1
 22 24  1  0
 24 25  1  0
 20 26  1  0
 26 27  2  0
 27 28  1  0
 28  2  1  0
 15  9  1  0
 28 17  2  0
M  END
>  <Synonyms>  (543) 
TAK 733|TAK-733|TAK733

>  <Research Codes>  (543) 
TAK-733|TAK733

>  <Phase>  (543) 
1

>  <Applicants>  (543) 
nan

>  <USAN Stem>  (543) 
nan

>  <USAN Year>  (543) 
nan

>  <USAN Stem Definition>  (543) 
nan

>  <USAN Stem Substem>  (543) 
nan

>  <First Approval>  (543) 
nan

>  <ATC Codes>  (543) 
nan

>  <Level 4 ATC Codes>  (543) 
nan

>  <Level 3 ATC Codes>  (543) 
nan

>  <Level 2 ATC Codes>  (543) 
nan

>  <Level 1 ATC Codes>  (543) 
nan

>  <Indication Class>  (543) 
nan

>  <Patent>  (543) 
nan

>  <Drug Type>  (543) 
1:Synthetic Small Molecule

>  <Passes Rule of Five>  (543) 
False

>  <First In Class>  (543) 
False

>  <Chirality>  (543) 
Single Stereoisomer

>  <Prodrug>  (543) 
False

>  <Oral>  (543) 
False

>  <Parenteral>  (543) 
False

>  <Topical>  (543) 
False

>  <Black Box>  (543) 
False

>  <Availability Type>  (543) 
Unknown

>  <Withdrawn Year>  (543) 
nan

>  <Withdrawn Reason>  (543) 
nan

>  <Withdrawn Country>  (543) 
nan

>  <Withdrawn Class>  (543) 
nan

>  <SMILES>  (543) 
Cn1c(=O)c(F)c(Nc2ccc(I)cc2F)c2c(=O)n(C[C@@H](O)CO)cnc21

>  <InChi Key>  (543) 
RCLQNICOARASSR-SECBINFHSA-N

$$$$
CHEMBL1084546
     RDKit          2D

 35 38  0  0  0  0  0  0  0  0999 V2000
    3.0000   -7.7942    0.0000 C   0  0  0  0  0  0  0  0  0  0  0  0
    3.7500   -9.0933    0.0000 N   0  0  0  0  0  0  0  0  0  0  0  0
    3.0000  -10.3923    0.0000 C   0  0  0  0  0  0  0  0  0  0  0  0
    3.7500  -11.6913    0.0000 N   0  0  0  0  0  0  0  0  0  0  0  0
    3.0000  -12.9904    0.0000 C   0  0  0  0  0  0  0  0  0  0  0  0
    1.5000  -12.9904    0.0000 C   0  0  0  0  0  0  0  0  0  0  0  0
    0.7500  -11.6913    0.0000 C   0  0  0  0  0  0  0  0  0  0  0  0
    1.5000  -10.3923    0.0000 C   0  0  0  0  0  0  0  0  0  0  0  0
    0.7500   -9.0933    0.0000 C   0  0  0  0  0  0  0  0  0  0  0  0
    1.5000   -7.7942    0.0000 N   0  0  0  0  0  0  0  0  0  0  0  0
    0.7500   -6.4952    0.0000 C   0  0  0  0  0  0  0  0  0  0  0  0
    1.5000   -5.1962    0.0000 N   0  0  0  0  0  0  0  0  0  0  0  0
    0.7500   -3.8971    0.0000 C   0  0  0  0  0  0  0  0  0  0  0  0
    1.5000   -2.5981    0.0000 N   0  0  0  0  0  0  0  0  0  0  0  0
    0.7500   -1.2990    0.0000 C   0  0  0  0  0  0  0  0  0  0  0  0
    1.5000    0.0000    0.0000 C   0  0  0  0  0  0  0  0  0  0  0  0
    0.7500    1.2990    0.0000 C   0  0  0  0  0  0  0  0  0  0  0  0
   -0.7500    1.2990    0.0000 C   0  0  0  0  0  0  0  0  0  0  0  0
   -1.5000    0.0000    0.0000 C   0  0  0  0  0  0  0  0  0  0  0  0
   -0.7500   -1.2990    0.0000 C   0  0  0  0  0  0  0  0  0  0  0  0
   -2.9672    0.3119    0.0000 C   0  0  0  0  0  0  0  0  0  0  0  0
   -3.1240    1.8037    0.0000 C   0  0  0  0  0  0  0  0  0  0  0  0
   -4.4231    2.5537    0.0000 O   0  0  0  0  0  0  0  0  0  0  0  0
   -1.7537    2.4138    0.0000 N   0  0  0  0  0  0  0  0  0  0  0  0
   -0.7500   -3.8971    0.0000 N   0  0  0  0  0  0  0  0  0  0  0  0
   -1.5000   -5.1962    0.0000 C   0  0  0  0  0  0  0  0  0  0  0  0
   -0.7500   -6.4952    0.0000 C   0  0  0  0  0  0  0  0  0  0  0  0
   -1.5000   -7.7942    0.0000 C   0  0  0  0  0  0  0  0  0  0  0  0
   -2.2500   -9.0933    0.0000 F   0  0  0  0  0  0  0  0  0  0  0  0
   -2.7990   -7.0442    0.0000 F   0  0  0  0  0  0  0  0  0  0  0  0
   -0.2010   -8.5442    0.0000 F   0  0  0  0  0  0  0  0  0  0  0  0
    5.2500   -9.0933    0.0000 S   0  0  0  0  0  0  0  0  0  0  0  0
    6.7500   -9.0933    0.0000 C   0  0  0  0  0  0  0  0  0  0  0  0
    5.2500  -10.5933    0.0000 O   0  0  0  0  0  0  0  0  0  0  0  0
    5.2500   -7.5933    0.0000 O   0  0  0  0  0  0  0  0  0  0  0  0
  1  2  1  0
  2  3  1  0
  3  4  2  0
  4  5  1  0
  5  6  2  0
  6  7  1  0
  7  8  2  0
  8  9  1  0
  9 10  1  0
 10 11  2  3
 11 12  1  0
 12 13  1  0
 13 14  2  3
 14 15  1  0
 15 16  2  0
 16 17  1  0
 17 18  2  0
 18 19  1  0
 19 20  2  0
 19 21  1  0
 21 22  2  0
 22 23  1  0
 22 24  1  0
 13 25  1  0
 25 26  1  0
 26 27  2  0
 27 28  1  0
 28 29  1  0
 28 30  1  0
 28 31  1  0
  2 32  1  0
 32 33  1  0
 32 34  2  0
 32 35  2  0
  8  3  1  0
 27 11  1  0
 20 15  1  0
 24 18  1  0
M  END
>  <Synonyms>  (544) 
PF 562271|PF-00562271|PF-562271

>  <Research Codes>  (544) 
PF 562271|PF-562271

>  <Phase>  (544) 
1

>  <Applicants>  (544) 
nan

>  <USAN Stem>  (544) 
nan

>  <USAN Year>  (544) 
nan

>  <USAN Stem Definition>  (544) 
nan

>  <USAN Stem Substem>  (544) 
nan

>  <First Approval>  (544) 
nan

>  <ATC Codes>  (544) 
nan

>  <Level 4 ATC Codes>  (544) 
nan

>  <Level 3 ATC Codes>  (544) 
nan

>  <Level 2 ATC Codes>  (544) 
nan

>  <Level 1 ATC Codes>  (544) 
nan

>  <Indication Class>  (544) 
nan

>  <Patent>  (544) 
nan

>  <Drug Type>  (544) 
1:Synthetic Small Molecule

>  <Passes Rule of Five>  (544) 
False

>  <First In Class>  (544) 
False

>  <Chirality>  (544) 
Achiral Molecule

>  <Prodrug>  (544) 
False

>  <Oral>  (544) 
False

>  <Parenteral>  (544) 
False

>  <Topical>  (544) 
False

>  <Black Box>  (544) 
False

>  <Availability Type>  (544) 
Unknown

>  <Withdrawn Year>  (544) 
nan

>  <Withdrawn Reason>  (544) 
nan

>  <Withdrawn Country>  (544) 
nan

>  <Withdrawn Class>  (544) 
nan

>  <SMILES>  (544) 
CN(c1ncccc1CNc1nc(Nc2ccc3c(c2)CC(=O)N3)ncc1C(F)(F)F)S(C)(=O)=O

>  <InChi Key>  (544) 
SACKFBGRWYSCQK-UHFFFAOYSA-N

$$$$
CHEMBL4302505
     RDKit          2D

 27 29  0  0  0  0  0  0  0  0999 V2000
    7.5000   -2.5981    0.0000 C   0  0  0  0  0  0  0  0  0  0  0  0
    6.0000   -2.5981    0.0000 C   0  0  0  0  0  0  0  0  0  0  0  0
    5.2500   -3.8971    0.0000 C   0  0  0  0  0  0  0  0  0  0  0  0
    5.2500   -1.2990    0.0000 C   0  0  0  0  0  0  0  0  0  0  0  0
    3.7500   -1.2990    0.0000 C   0  0  0  0  0  0  0  0  0  0  0  0
    3.0000    0.0000    0.0000 N   0  0  0  0  0  0  0  0  0  0  0  0
    1.5000    0.0000    0.0000 C   0  0  0  0  0  0  0  0  0  0  0  0
    0.7500   -1.2990    0.0000 N   0  0  0  0  0  0  0  0  0  0  0  0
   -0.7500   -1.2990    0.0000 C   0  0  0  0  0  0  0  0  0  0  0  0
   -1.5000    0.0000    0.0000 C   0  0  0  0  0  0  0  0  0  0  0  0
   -0.7500    1.2990    0.0000 C   0  0  0  0  0  0  0  0  0  0  0  0
    0.7500    1.2990    0.0000 C   0  0  0  0  0  0  0  0  0  0  0  0
    1.5000    2.5981    0.0000 C   0  0  0  0  0  0  0  0  0  0  0  0
    3.0000    2.5981    0.0000 O   0  0  0  0  0  0  0  0  0  0  0  0
    0.7500    3.8971    0.0000 N   0  0  0  0  0  0  0  0  0  0  0  0
    1.5000    5.1962    0.0000 C   0  0  0  0  0  0  0  0  0  0  0  0
    0.7500    6.4952    0.0000 C   0  0  0  0  0  0  0  0  0  0  0  0
   -0.7500    6.4952    0.0000 N   0  0  0  0  0  0  0  0  0  0  0  0
   -1.5000    7.7942    0.0000 C   0  0  0  0  0  0  0  0  0  0  0  0
   -0.7500    9.0933    0.0000 C   0  0  0  0  0  0  0  0  0  0  0  0
    0.7500    9.0933    0.0000 C   0  0  0  0  0  0  0  0  0  0  0  0
    1.5000   10.3923    0.0000 C   0  0  0  0  0  0  0  0  0  0  0  0
    0.7500   11.6913    0.0000 C   0  0  0  0  0  0  0  0  0  0  0  0
   -0.7500   11.6913    0.0000 C   0  0  0  0  0  0  0  0  0  0  0  0
   -1.5000   10.3923    0.0000 C   0  0  0  0  0  0  0  0  0  0  0  0
   -1.5000    5.1962    0.0000 C   0  0  0  0  0  0  0  0  0  0  0  0
   -0.7500    3.8971    0.0000 C   0  0  0  0  0  0  0  0  0  0  0  0
  1  2  1  0
  2  3  1  0
  2  4  1  0
  4  5  1  0
  5  6  1  0
  6  7  2  3
  7  8  1  0
  8  9  1  0
  9 10  2  0
 10 11  1  0
 11 12  2  0
 12 13  1  0
 13 14  2  0
 13 15  1  0
 15 16  1  0
 16 17  1  0
 17 18  1  0
 18 19  1  0
 19 20  1  0
 20 21  2  0
 21 22  1  0
 22 23  2  0
 23 24  1  0
 24 25  2  0
 18 26  1  0
 26 27  1  0
 12  7  1  0
 27 15  1  0
 25 20  1  0
M  END
>  <Synonyms>  (545) 
nan

>  <Research Codes>  (545) 
nan

>  <Phase>  (545) 
1

>  <Applicants>  (545) 
nan

>  <USAN Stem>  (545) 
nan

>  <USAN Year>  (545) 
nan

>  <USAN Stem Definition>  (545) 
nan

>  <USAN Stem Substem>  (545) 
nan

>  <First Approval>  (545) 
nan

>  <ATC Codes>  (545) 
nan

>  <Level 4 ATC Codes>  (545) 
nan

>  <Level 3 ATC Codes>  (545) 
nan

>  <Level 2 ATC Codes>  (545) 
nan

>  <Level 1 ATC Codes>  (545) 
nan

>  <Indication Class>  (545) 
nan

>  <Patent>  (545) 
nan

>  <Drug Type>  (545) 
1:Synthetic Small Molecule

>  <Passes Rule of Five>  (545) 
True

>  <First In Class>  (545) 
False

>  <Chirality>  (545) 
Achiral Molecule

>  <Prodrug>  (545) 
False

>  <Oral>  (545) 
False

>  <Parenteral>  (545) 
False

>  <Topical>  (545) 
False

>  <Black Box>  (545) 
False

>  <Availability Type>  (545) 
Unknown

>  <Withdrawn Year>  (545) 
nan

>  <Withdrawn Reason>  (545) 
nan

>  <Withdrawn Country>  (545) 
nan

>  <Withdrawn Class>  (545) 
nan

>  <SMILES>  (545) 
CC(C)CCNc1ncccc1C(=O)N1CCN(Cc2ccccc2)CC1

>  <InChi Key>  (545) 
DYTOQURYRYYNOR-UHFFFAOYSA-N

$$$$
CHEMBL376408
     RDKit          2D

 56 61  0  0  0  0  0  0  0  0999 V2000
    1.5000  -10.3923    0.0000 C   0  0  0  0  0  0  0  0  0  0  0  0
    0.7500   -9.0933    0.0000 N   0  0  0  0  0  0  0  0  0  0  0  0
   -0.7500   -9.0933    0.0000 C   0  0  0  0  0  0  0  0  0  0  0  0
    1.5000   -7.7942    0.0000 C   0  0  0  0  0  0  0  0  0  0  0  0
    0.7500   -6.4952    0.0000 C   0  0  0  0  0  0  0  0  0  0  0  0
    1.5000   -5.1962    0.0000 C   0  0  0  0  0  0  0  0  0  0  0  0
    0.7500   -3.8971    0.0000 C   0  0  0  0  0  0  0  0  0  0  0  0
    1.5000   -2.5981    0.0000 S   0  0  0  0  0  0  0  0  0  0  0  0
    0.7500   -1.2990    0.0000 C   0  0  0  0  0  0  0  0  0  0  0  0
    1.5000    0.0000    0.0000 C   0  0  0  0  0  0  0  0  0  0  0  0
    0.7500    1.2990    0.0000 C   0  0  0  0  0  0  0  0  0  0  0  0
   -0.7500    1.2990    0.0000 C   0  0  0  0  0  0  0  0  0  0  0  0
   -1.5000    0.0000    0.0000 C   0  0  0  0  0  0  0  0  0  0  0  0
   -0.7500   -1.2990    0.0000 C   0  0  0  0  0  0  0  0  0  0  0  0
    3.0000   -5.1962    0.0000 N   0  0  0  0  0  0  0  0  0  0  0  0
    3.7500   -6.4952    0.0000 C   0  0  0  0  0  0  0  0  0  0  0  0
    3.0000   -7.7942    0.0000 C   0  0  0  0  0  0  0  0  0  0  0  0
    3.7500   -9.0933    0.0000 C   0  0  0  0  0  0  0  0  0  0  0  0
    5.2500   -9.0933    0.0000 C   0  0  0  0  0  0  0  0  0  0  0  0
    6.0000  -10.3923    0.0000 S   0  0  0  0  0  0  0  0  0  0  0  0
    4.7010  -11.1423    0.0000 O   0  0  0  0  0  0  0  0  0  0  0  0
    7.2990   -9.6423    0.0000 O   0  0  0  0  0  0  0  0  0  0  0  0
    6.7500  -11.6913    0.0000 N   0  0  0  0  0  0  0  0  0  0  0  0
    8.2500  -11.6913    0.0000 C   0  0  0  0  0  0  0  0  0  0  0  0
    9.0000  -10.3923    0.0000 O   0  0  0  0  0  0  0  0  0  0  0  0
    9.0000  -12.9904    0.0000 C   0  0  0  0  0  0  0  0  0  0  0  0
    8.2500  -14.2894    0.0000 C   0  0  0  0  0  0  0  0  0  0  0  0
    9.0000  -15.5885    0.0000 C   0  0  0  0  0  0  0  0  0  0  0  0
   10.5000  -15.5885    0.0000 C   0  0  0  0  0  0  0  0  0  0  0  0
   11.2500  -16.8875    0.0000 N   0  0  0  0  0  0  0  0  0  0  0  0
   10.5000  -18.1865    0.0000 C   0  0  0  0  0  0  0  0  0  0  0  0
   11.2500  -19.4856    0.0000 C   0  0  0  0  0  0  0  0  0  0  0  0
   12.7500  -19.4856    0.0000 N   0  0  0  0  0  0  0  0  0  0  0  0
   13.5000  -20.7846    0.0000 C   0  0  0  0  0  0  0  0  0  0  0  0
   12.7500  -22.0836    0.0000 C   0  0  0  0  0  0  0  0  0  0  0  0
   11.2500  -22.0836    0.0000 C   0  0  0  0  0  0  0  0  0  0  0  0
   10.5000  -23.3827    0.0000 C   0  0  0  0  0  0  0  0  0  0  0  0
   11.2500  -24.6817    0.0000 C   0  0  0  0  0  0  0  0  0  0  0  0
   12.7500  -24.6817    0.0000 C   0  0  0  0  0  0  0  0  0  0  0  0
   13.5000  -23.3827    0.0000 C   0  0  0  0  0  0  0  0  0  0  0  0
   15.0000  -23.3827    0.0000 C   0  0  0  0  0  0  0  0  0  0  0  0
   15.7500  -24.6817    0.0000 C   0  0  0  0  0  0  0  0  0  0  0  0
   17.2500  -24.6817    0.0000 C   0  0  0  0  0  0  0  0  0  0  0  0
   18.0000  -23.3827    0.0000 C   0  0  0  0  0  0  0  0  0  0  0  0
   19.5000  -23.3827    0.0000 Cl  0  0  0  0  0  0  0  0  0  0  0  0
   17.2500  -22.0836    0.0000 C   0  0  0  0  0  0  0  0  0  0  0  0
   15.7500  -22.0836    0.0000 C   0  0  0  0  0  0  0  0  0  0  0  0
   13.5000  -18.1865    0.0000 C   0  0  0  0  0  0  0  0  0  0  0  0
   12.7500  -16.8875    0.0000 C   0  0  0  0  0  0  0  0  0  0  0  0
   11.2500  -14.2894    0.0000 C   0  0  0  0  0  0  0  0  0  0  0  0
   10.5000  -12.9904    0.0000 C   0  0  0  0  0  0  0  0  0  0  0  0
    6.0000   -7.7942    0.0000 C   0  0  0  0  0  0  0  0  0  0  0  0
    5.2500   -6.4952    0.0000 C   0  0  0  0  0  0  0  0  0  0  0  0
    6.0000   -5.1962    0.0000 N   0  0  0  0  0  4  0  0  0  0  0  0
    5.2500   -3.8971    0.0000 O   0  0  0  0  0  0  0  0  0  0  0  0
    7.5000   -5.1962    0.0000 O   0  0  0  0  0  1  0  0  0  0  0  0
  1  2  1  0
  2  3  1  0
  2  4  1  0
  4  5  1  0
  6  5  1  6
  6  7  1  0
  7  8  1  0
  8  9  1  0
  9 10  2  0
 10 11  1  0
 11 12  2  0
 12 13  1  0
 13 14  2  0
  6 15  1  0
 15 16  1  0
 16 17  2  0
 17 18  1  0
 18 19  2  0
 19 20  1  0
 20 21  2  0
 20 22  2  0
 20 23  1  0
 23 24  1  0
 24 25  2  0
 24 26  1  0
 26 27  2  0
 27 28  1  0
 28 29  2  0
 29 30  1  0
 30 31  1  0
 31 32  1  0
 32 33  1  0
 33 34  1  0
 34 35  1  0
 35 36  2  0
 36 37  1  0
 37 38  2  0
 38 39  1  0
 39 40  2  0
 40 41  1  0
 41 42  2  0
 42 43  1  0
 43 44  2  0
 44 45  1  0
 44 46  1  0
 46 47  2  0
 33 48  1  0
 48 49  1  0
 29 50  1  0
 50 51  2  0
 19 52  1  0
 52 53  2  0
 53 54  1  0
 54 55  2  0
 54 56  1  0
 14  9  1  0
 53 16  1  0
 51 26  1  0
 49 30  1  0
 40 35  1  0
 47 41  1  0
M  CHG  2  54   1  56  -1
M  END
>  <Synonyms>  (546) 
ABT 737|ABT-737

>  <Research Codes>  (546) 
ABT-737

>  <Phase>  (546) 
1

>  <Applicants>  (546) 
nan

>  <USAN Stem>  (546) 
nan

>  <USAN Year>  (546) 
nan

>  <USAN Stem Definition>  (546) 
nan

>  <USAN Stem Substem>  (546) 
nan

>  <First Approval>  (546) 
nan

>  <ATC Codes>  (546) 
nan

>  <Level 4 ATC Codes>  (546) 
nan

>  <Level 3 ATC Codes>  (546) 
nan

>  <Level 2 ATC Codes>  (546) 
nan

>  <Level 1 ATC Codes>  (546) 
nan

>  <Indication Class>  (546) 
nan

>  <Patent>  (546) 
nan

>  <Drug Type>  (546) 
1:Synthetic Small Molecule

>  <Passes Rule of Five>  (546) 
False

>  <First In Class>  (546) 
False

>  <Chirality>  (546) 
Single Stereoisomer

>  <Prodrug>  (546) 
False

>  <Oral>  (546) 
False

>  <Parenteral>  (546) 
False

>  <Topical>  (546) 
False

>  <Black Box>  (546) 
False

>  <Availability Type>  (546) 
Unknown

>  <Withdrawn Year>  (546) 
nan

>  <Withdrawn Reason>  (546) 
nan

>  <Withdrawn Country>  (546) 
nan

>  <Withdrawn Class>  (546) 
nan

>  <SMILES>  (546) 
CN(C)CC[C@H](CSc1ccccc1)Nc1ccc(S(=O)(=O)NC(=O)c2ccc(N3CCN(Cc4ccccc4-c4ccc(Cl)cc4)CC3)cc2)cc1[N+](=O)[O-]

>  <InChi Key>  (546) 
HPLNQCPCUACXLM-PGUFJCEWSA-N

$$$$
CHEMBL279433
     RDKit          2D

 29 32  0  0  0  0  0  0  0  0999 V2000
    4.5000    0.0000    0.0000 N   0  0  0  0  0  0  0  0  0  0  0  0
    3.0000    0.0000    0.0000 C   0  0  0  0  0  0  0  0  0  0  0  0
    1.5000    0.0000    0.0000 C   0  0  0  0  0  0  0  0  0  0  0  0
    0.7500   -1.2990    0.0000 C   0  0  0  0  0  0  0  0  0  0  0  0
   -0.7500   -1.2990    0.0000 C   0  0  0  0  0  0  0  0  0  0  0  0
   -1.5000    0.0000    0.0000 C   0  0  0  0  0  0  0  0  0  0  0  0
   -3.0000    0.0000    0.0000 C   0  0  0  0  0  0  0  0  0  0  0  0
   -3.7500    1.2990    0.0000 N   0  0  0  0  0  0  0  0  0  0  0  0
   -5.2418    1.4558    0.0000 C   0  0  0  0  0  0  0  0  0  0  0  0
   -5.5537    2.9231    0.0000 N   0  0  0  0  0  0  0  0  0  0  0  0
   -4.2546    3.6731    0.0000 C   0  0  0  0  0  0  0  0  0  0  0  0
   -3.1399    2.6694    0.0000 C   0  0  0  0  0  0  0  0  0  0  0  0
   -1.6727    2.9812    0.0000 C   0  0  0  0  0  0  0  0  0  0  0  0
   -1.2091    4.4078    0.0000 N   0  0  0  0  0  0  0  0  0  0  0  0
    0.2581    4.7197    0.0000 C   0  0  0  0  0  0  0  0  0  0  0  0
    0.7216    6.1463    0.0000 C   0  0  0  0  0  0  0  0  0  0  0  0
   -0.2821    7.2610    0.0000 N   0  0  0  0  0  0  0  0  0  0  0  0
    0.1814    8.6876    0.0000 C   0  0  0  0  0  0  0  0  0  0  0  0
    1.6486    8.9994    0.0000 C   0  0  0  0  0  0  0  0  0  0  0  0
    2.1122   10.4260    0.0000 C   0  0  0  0  0  0  0  0  0  0  0  0
    1.1085   11.5407    0.0000 C   0  0  0  0  0  0  0  0  0  0  0  0
   -0.3587   11.2289    0.0000 C   0  0  0  0  0  0  0  0  0  0  0  0
   -1.3624   12.3436    0.0000 Cl  0  0  0  0  0  0  0  0  0  0  0  0
   -0.8223    9.8023    0.0000 C   0  0  0  0  0  0  0  0  0  0  0  0
   -1.7493    6.9491    0.0000 C   0  0  0  0  0  0  0  0  0  0  0  0
   -2.7530    8.0638    0.0000 O   0  0  0  0  0  0  0  0  0  0  0  0
   -2.2128    5.5225    0.0000 C   0  0  0  0  0  0  0  0  0  0  0  0
   -0.7500    1.2990    0.0000 C   0  0  0  0  0  0  0  0  0  0  0  0
    0.7500    1.2990    0.0000 C   0  0  0  0  0  0  0  0  0  0  0  0
  1  2  3  0
  2  3  1  0
  3  4  2  0
  4  5  1  0
  5  6  2  0
  6  7  1  0
  7  8  1  0
  8  9  1  0
  9 10  2  0
 10 11  1  0
 11 12  2  0
 12 13  1  0
 13 14  1  0
 14 15  1  0
 15 16  1  0
 16 17  1  0
 17 18  1  0
 18 19  2  0
 19 20  1  0
 20 21  2  0
 21 22  1  0
 22 23  1  0
 22 24  2  0
 17 25  1  0
 25 26  2  0
 25 27  1  0
  6 28  1  0
 28 29  2  0
 29  3  1  0
 12  8  1  0
 27 14  1  0
 24 18  1  0
M  END
>  <Synonyms>  (547) 
L-778123

>  <Research Codes>  (547) 
L-778123

>  <Phase>  (547) 
1

>  <Applicants>  (547) 
nan

>  <USAN Stem>  (547) 
nan

>  <USAN Year>  (547) 
nan

>  <USAN Stem Definition>  (547) 
nan

>  <USAN Stem Substem>  (547) 
nan

>  <First Approval>  (547) 
nan

>  <ATC Codes>  (547) 
nan

>  <Level 4 ATC Codes>  (547) 
nan

>  <Level 3 ATC Codes>  (547) 
nan

>  <Level 2 ATC Codes>  (547) 
nan

>  <Level 1 ATC Codes>  (547) 
nan

>  <Indication Class>  (547) 
nan

>  <Patent>  (547) 
nan

>  <Drug Type>  (547) 
1:Synthetic Small Molecule

>  <Passes Rule of Five>  (547) 
True

>  <First In Class>  (547) 
False

>  <Chirality>  (547) 
Achiral Molecule

>  <Prodrug>  (547) 
False

>  <Oral>  (547) 
False

>  <Parenteral>  (547) 
False

>  <Topical>  (547) 
False

>  <Black Box>  (547) 
False

>  <Availability Type>  (547) 
Unknown

>  <Withdrawn Year>  (547) 
nan

>  <Withdrawn Reason>  (547) 
nan

>  <Withdrawn Country>  (547) 
nan

>  <Withdrawn Class>  (547) 
nan

>  <SMILES>  (547) 
N#Cc1ccc(Cn2cncc2CN2CCN(c3cccc(Cl)c3)C(=O)C2)cc1

>  <InChi Key>  (547) 
JNUGFGAVPBYSHF-UHFFFAOYSA-N

$$$$
CHEMBL4299850
     RDKit          2D

 26 29  0  0  0  0  0  0  0  0999 V2000
   -2.0861   -3.9788    0.0000 C   0  0  0  0  0  0  0  0  0  0  0  0
   -1.5000   -2.5981    0.0000 N   0  0  0  0  0  0  0  0  0  0  0  0
   -0.0000   -2.5981    0.0000 C   0  0  0  0  0  0  0  0  0  0  0  0
    0.7500   -1.2990    0.0000 C   0  0  0  0  0  0  0  0  0  0  0  0
    1.5000    0.0000    0.0000 C   0  0  0  0  0  0  0  0  0  0  0  0
    0.7500    1.2990    0.0000 C   0  0  0  0  0  0  0  0  0  0  0  0
   -0.7500    1.2990    0.0000 C   0  0  0  0  0  0  0  0  0  0  0  0
   -1.5000    0.0000    0.0000 C   0  0  0  0  0  0  0  0  0  0  0  0
   -2.2500   -1.2990    0.0000 C   0  0  0  0  0  0  0  0  0  0  0  0
   -0.7500   -1.2990    0.0000 C   0  0  0  0  0  0  0  0  0  0  0  0
   -1.5000   -2.5981    0.0000 O   0  0  0  0  0  0  0  0  0  0  0  0
   -3.0000   -2.5981    0.0000 C   0  0  0  0  0  0  0  0  0  0  0  0
   -3.7500   -1.2990    0.0000 O   0  0  0  0  0  0  0  0  0  0  0  0
   -3.7500   -3.8971    0.0000 C   0  0  0  0  0  0  0  0  0  0  0  0
   -2.5521   -4.7999    0.0000 O   0  0  0  0  0  0  0  0  0  0  0  0
   -4.5000   -5.1962    0.0000 C   0  0  0  0  0  0  0  0  0  0  0  0
   -6.0000   -5.1962    0.0000 C   0  0  0  0  0  0  0  0  0  0  0  0
   -6.7500   -6.4952    0.0000 C   0  0  0  0  0  0  0  0  0  0  0  0
   -6.0000   -7.7942    0.0000 C   0  0  0  0  0  0  0  0  0  0  0  0
   -4.5000   -7.7942    0.0000 C   0  0  0  0  0  0  0  0  0  0  0  0
   -3.7500   -6.4952    0.0000 C   0  0  0  0  0  0  0  0  0  0  0  0
   -5.0490   -3.1471    0.0000 C   0  0  0  0  0  0  0  0  0  0  0  0
   -6.4194   -3.7572    0.0000 C   0  0  0  0  0  0  0  0  0  0  0  0
   -7.4231   -2.6425    0.0000 C   0  0  0  0  0  0  0  0  0  0  0  0
   -6.6731   -1.3435    0.0000 C   0  0  0  0  0  0  0  0  0  0  0  0
   -5.2058   -1.6553    0.0000 C   0  0  0  0  0  0  0  0  0  0  0  0
  1  2  1  0
  2  3  1  0
  3  4  1  0
  4  5  1  0
  5  6  1  0
  6  7  1  0
  7  8  1  0
  8  9  1  0
  8 10  1  0
 10 11  1  0
 11 12  1  0
 12 13  2  0
 12 14  1  0
 14 15  1  0
 14 16  1  0
 16 17  2  0
 17 18  1  0
 18 19  2  0
 19 20  1  0
 20 21  2  0
 14 22  1  0
 22 23  1  0
 23 24  1  0
 24 25  1  0
 25 26  1  0
  9  2  1  0
 21 16  1  0
 26 22  1  0
 10  4  1  0
M  END
>  <Synonyms>  (548) 
nan

>  <Research Codes>  (548) 
nan

>  <Phase>  (548) 
1

>  <Applicants>  (548) 
nan

>  <USAN Stem>  (548) 
nan

>  <USAN Year>  (548) 
nan

>  <USAN Stem Definition>  (548) 
nan

>  <USAN Stem Substem>  (548) 
nan

>  <First Approval>  (548) 
nan

>  <ATC Codes>  (548) 
nan

>  <Level 4 ATC Codes>  (548) 
nan

>  <Level 3 ATC Codes>  (548) 
nan

>  <Level 2 ATC Codes>  (548) 
nan

>  <Level 1 ATC Codes>  (548) 
nan

>  <Indication Class>  (548) 
nan

>  <Patent>  (548) 
nan

>  <Drug Type>  (548) 
1:Synthetic Small Molecule

>  <Passes Rule of Five>  (548) 
True

>  <First In Class>  (548) 
False

>  <Chirality>  (548) 
Racemic Mixture

>  <Prodrug>  (548) 
False

>  <Oral>  (548) 
False

>  <Parenteral>  (548) 
False

>  <Topical>  (548) 
False

>  <Black Box>  (548) 
False

>  <Availability Type>  (548) 
Unknown

>  <Withdrawn Year>  (548) 
nan

>  <Withdrawn Reason>  (548) 
nan

>  <Withdrawn Country>  (548) 
nan

>  <Withdrawn Class>  (548) 
nan

>  <SMILES>  (548) 
CN1CC2CCCC(C1)C2OC(=O)C(O)(c1ccccc1)C1CCCC1

>  <InChi Key>  (548) 
ROZOEEGFKDFEFP-UHFFFAOYSA-N

$$$$
CHEMBL3544932
     RDKit          2D

 36 40  0  0  0  0  0  0  0  0999 V2000
   -9.2786   -4.8945    0.0000 C   0  0  0  0  0  0  0  0  0  0  0  0
   -9.1218   -3.4027    0.0000 C   0  0  0  0  0  0  0  0  0  0  0  0
   -7.7515   -2.7926    0.0000 S   0  0  0  0  0  0  0  0  0  0  0  0
   -7.1414   -4.1629    0.0000 O   0  0  0  0  0  0  0  0  0  0  0  0
   -8.3616   -1.4223    0.0000 O   0  0  0  0  0  0  0  0  0  0  0  0
   -6.3812   -2.1825    0.0000 C   0  0  0  0  0  0  0  0  0  0  0  0
   -6.2244   -0.6907    0.0000 C   0  0  0  0  0  0  0  0  0  0  0  0
   -4.8541   -0.0806    0.0000 C   0  0  0  0  0  0  0  0  0  0  0  0
   -3.6406   -0.9623    0.0000 C   0  0  0  0  0  0  0  0  0  0  0  0
   -3.7974   -2.4540    0.0000 C   0  0  0  0  0  0  0  0  0  0  0  0
   -2.5838   -3.3357    0.0000 C   0  0  0  0  0  0  0  0  0  0  0  0
   -2.7406   -4.8275    0.0000 C   0  0  0  0  0  0  0  0  0  0  0  0
   -1.5271   -5.7092    0.0000 C   0  0  0  0  0  0  0  0  0  0  0  0
   -1.6839   -7.2010    0.0000 C   0  0  0  0  0  0  0  0  0  0  0  0
   -0.4704   -8.0826    0.0000 O   0  0  0  0  0  0  0  0  0  0  0  0
   -3.0542   -7.8111    0.0000 N   0  0  0  0  0  0  0  0  0  0  0  0
   -3.2110   -9.3029    0.0000 C   0  0  0  0  0  0  0  0  0  0  0  0
   -4.5813   -9.9130    0.0000 C   0  0  0  0  0  0  0  0  0  0  0  0
   -4.7381  -11.4047    0.0000 C   0  0  0  0  0  0  0  0  0  0  0  0
   -3.5246  -12.2864    0.0000 N   0  0  0  0  0  0  0  0  0  0  0  0
   -3.6814  -13.7782    0.0000 C   0  0  0  0  0  0  0  0  0  0  0  0
   -2.1543  -11.6763    0.0000 C   0  0  0  0  0  0  0  0  0  0  0  0
   -1.9975  -10.1845    0.0000 C   0  0  0  0  0  0  0  0  0  0  0  0
   -0.1568   -5.0991    0.0000 C   0  0  0  0  0  0  0  0  0  0  0  0
    1.0567   -5.9808    0.0000 C   0  0  0  0  0  0  0  0  0  0  0  0
    0.0000   -3.6073    0.0000 C   0  0  0  0  0  0  0  0  0  0  0  0
    1.2135   -2.7256    0.0000 N   0  0  0  0  0  0  0  0  0  0  0  0
    0.7500   -1.2990    0.0000 C   0  0  0  0  0  0  0  0  0  0  0  0
    1.5000    0.0000    0.0000 N   0  0  0  0  0  0  0  0  0  0  0  0
    0.7500    1.2990    0.0000 C   0  0  0  0  0  0  0  0  0  0  0  0
   -0.7500    1.2990    0.0000 C   0  0  0  0  0  0  0  0  0  0  0  0
   -1.5000    2.5981    0.0000 C   0  0  0  0  0  0  0  0  0  0  0  0
   -1.5000    0.0000    0.0000 C   0  0  0  0  0  0  0  0  0  0  0  0
   -0.7500   -1.2990    0.0000 C   0  0  0  0  0  0  0  0  0  0  0  0
   -1.2135   -2.7256    0.0000 C   0  0  0  0  0  0  0  0  0  0  0  0
   -5.1677   -3.0642    0.0000 C   0  0  0  0  0  0  0  0  0  0  0  0
  1  2  1  0
  2  3  1  0
  3  4  2  0
  3  5  2  0
  3  6  1  0
  6  7  2  0
  7  8  1  0
  8  9  2  0
  9 10  1  0
 10 11  1  0
 11 12  2  0
 12 13  1  0
 13 14  1  0
 14 15  2  0
 14 16  1  0
 16 17  1  0
 17 18  1  0
 18 19  1  0
 19 20  1  0
 20 21  1  0
 20 22  1  0
 22 23  1  0
 13 24  2  0
 24 25  1  0
 24 26  1  0
 26 27  1  0
 27 28  1  0
 28 29  2  0
 29 30  1  0
 30 31  2  0
 31 32  1  0
 31 33  1  0
 33 34  2  0
 34 35  1  0
 10 36  2  0
 36  6  1  0
 35 11  1  0
 23 17  1  0
 35 26  2  0
 34 28  1  0
M  END
>  <Synonyms>  (549) 
TAK-901

>  <Research Codes>  (549) 
nan

>  <Phase>  (549) 
1

>  <Applicants>  (549) 
nan

>  <USAN Stem>  (549) 
nan

>  <USAN Year>  (549) 
nan

>  <USAN Stem Definition>  (549) 
nan

>  <USAN Stem Substem>  (549) 
nan

>  <First Approval>  (549) 
nan

>  <ATC Codes>  (549) 
nan

>  <Level 4 ATC Codes>  (549) 
nan

>  <Level 3 ATC Codes>  (549) 
nan

>  <Level 2 ATC Codes>  (549) 
nan

>  <Level 1 ATC Codes>  (549) 
nan

>  <Indication Class>  (549) 
nan

>  <Patent>  (549) 
nan

>  <Drug Type>  (549) 
1:Synthetic Small Molecule

>  <Passes Rule of Five>  (549) 
False

>  <First In Class>  (549) 
False

>  <Chirality>  (549) 
Achiral Molecule

>  <Prodrug>  (549) 
False

>  <Oral>  (549) 
False

>  <Parenteral>  (549) 
False

>  <Topical>  (549) 
False

>  <Black Box>  (549) 
False

>  <Availability Type>  (549) 
Unknown

>  <Withdrawn Year>  (549) 
nan

>  <Withdrawn Reason>  (549) 
nan

>  <Withdrawn Country>  (549) 
nan

>  <Withdrawn Class>  (549) 
nan

>  <SMILES>  (549) 
CCS(=O)(=O)c1cccc(-c2cc(C(=O)NC3CCN(C)CC3)c(C)c3[nH]c4ncc(C)cc4c23)c1

>  <InChi Key>  (549) 
WKDACQVEJIVHMZ-UHFFFAOYSA-N

$$$$
CHEMBL107400
     RDKit          2D

 24 25  0  0  0  0  0  0  0  0999 V2000
    3.0000    0.0000    0.0000 C   0  0  0  0  0  0  0  0  0  0  0  0
    1.5000    0.0000    0.0000 C   0  0  0  0  0  0  0  0  0  0  0  0
    0.7500   -1.2990    0.0000 C   0  0  0  0  0  0  0  0  0  0  0  0
   -0.7500   -1.2990    0.0000 C   0  0  0  0  0  0  0  0  0  0  0  0
   -1.5000   -2.5981    0.0000 O   0  0  0  0  0  0  0  0  0  0  0  0
   -3.0000   -2.5981    0.0000 C   0  0  0  0  0  0  0  0  0  0  0  0
   -3.7500   -3.8971    0.0000 C   0  0  0  0  0  0  0  0  0  0  0  0
   -5.2500   -3.8971    0.0000 O   0  0  0  0  0  0  0  0  0  0  0  0
   -3.0000   -5.1962    0.0000 O   0  0  0  0  0  0  0  0  0  0  0  0
   -1.5000    0.0000    0.0000 C   0  0  0  0  0  0  0  0  0  0  0  0
   -0.7500    1.2990    0.0000 C   0  0  0  0  0  0  0  0  0  0  0  0
   -1.5000    2.5981    0.0000 C   0  0  0  0  0  0  0  0  0  0  0  0
    0.7500    1.2990    0.0000 C   0  0  0  0  0  0  0  0  0  0  0  0
    1.5000    2.5981    0.0000 C   0  0  0  0  0  0  0  0  0  0  0  0
    3.0000    2.5981    0.0000 C   0  0  0  0  0  0  0  0  0  0  0  0
    3.7500    1.2990    0.0000 C   0  0  0  0  0  0  0  0  0  0  0  0
    5.2500    1.2990    0.0000 C   0  0  0  0  0  0  0  0  0  0  0  0
    6.0000    2.5981    0.0000 C   0  0  0  0  0  0  0  0  0  0  0  0
    7.5000    2.5981    0.0000 O   0  0  0  0  0  0  0  0  0  0  0  0
    5.2500    3.8971    0.0000 C   0  0  0  0  0  0  0  0  0  0  0  0
    6.0000    5.1962    0.0000 C   0  0  0  0  0  0  0  0  0  0  0  0
    5.2500    6.4952    0.0000 C   0  0  0  0  0  0  0  0  0  0  0  0
    7.5000    5.1962    0.0000 C   0  0  0  0  0  0  0  0  0  0  0  0
    3.7500    3.8971    0.0000 C   0  0  0  0  0  0  0  0  0  0  0  0
  1  2  1  0
  2  3  2  0
  3  4  1  0
  4  5  1  0
  5  6  1  0
  6  7  1  0
  7  8  2  0
  7  9  1  0
  4 10  2  0
 10 11  1  0
 11 12  1  0
 11 13  2  0
 13 14  1  0
 14 15  1  0
 15 16  2  0
 16 17  1  0
 17 18  2  0
 18 19  1  0
 18 20  1  0
 20 21  1  0
 21 22  1  0
 21 23  1  0
 20 24  2  0
 13  2  1  0
 24 15  1  0
M  END
>  <Synonyms>  (550) 
GC-1|QRX-431|SOBETIROME

>  <Research Codes>  (550) 
GC-1|QRX-431

>  <Phase>  (550) 
1

>  <Applicants>  (550) 
nan

>  <USAN Stem>  (550) 
'-tirome'

>  <USAN Year>  (550) 
2008.0

>  <USAN Stem Definition>  (550) 
antihyperlipidemic, thyromimetic derivatives

>  <USAN Stem Substem>  (550) 
'-tirome(-tirome)'

>  <First Approval>  (550) 
nan

>  <ATC Codes>  (550) 
nan

>  <Level 4 ATC Codes>  (550) 
nan

>  <Level 3 ATC Codes>  (550) 
nan

>  <Level 2 ATC Codes>  (550) 
nan

>  <Level 1 ATC Codes>  (550) 
nan

>  <Indication Class>  (550) 
nan

>  <Patent>  (550) 
nan

>  <Drug Type>  (550) 
1:Synthetic Small Molecule

>  <Passes Rule of Five>  (550) 
True

>  <First In Class>  (550) 
False

>  <Chirality>  (550) 
Achiral Molecule

>  <Prodrug>  (550) 
False

>  <Oral>  (550) 
False

>  <Parenteral>  (550) 
False

>  <Topical>  (550) 
False

>  <Black Box>  (550) 
False

>  <Availability Type>  (550) 
Unknown

>  <Withdrawn Year>  (550) 
nan

>  <Withdrawn Reason>  (550) 
nan

>  <Withdrawn Country>  (550) 
nan

>  <Withdrawn Class>  (550) 
nan

>  <SMILES>  (550) 
Cc1cc(OCC(=O)O)cc(C)c1Cc1ccc(O)c(C(C)C)c1

>  <InChi Key>  (550) 
QNAZTOHXCZPOSA-UHFFFAOYSA-N

$$$$
CHEMBL22150
     RDKit          2D

 21 23  0  0  0  0  0  0  0  0999 V2000
    3.0000    0.0000    0.0000 C   0  0  0  0  0  0  0  0  0  0  0  0
    1.5000    0.0000    0.0000 N   0  0  0  0  0  0  0  0  0  0  0  0
    0.7500   -1.2990    0.0000 C   0  0  0  0  0  0  0  0  0  0  0  0
   -0.7500   -1.2990    0.0000 C   0  0  0  0  0  0  0  0  0  0  0  0
   -1.5000    0.0000    0.0000 N   0  0  0  0  0  0  0  0  0  0  0  0
   -3.0000    0.0000    0.0000 C   0  0  0  0  0  0  0  0  0  0  0  0
   -3.7500    1.2990    0.0000 C   0  0  0  0  0  0  0  0  0  0  0  0
   -3.0000    2.5981    0.0000 C   0  0  0  0  0  0  0  0  0  0  0  0
   -3.7500    3.8971    0.0000 C   0  0  0  0  0  0  0  0  0  0  0  0
   -5.2500    3.8971    0.0000 C   0  0  0  0  0  0  0  0  0  0  0  0
   -6.0000    2.5981    0.0000 C   0  0  0  0  0  0  0  0  0  0  0  0
   -5.2500    1.2990    0.0000 C   0  0  0  0  0  0  0  0  0  0  0  0
   -3.7500   -1.2990    0.0000 C   0  0  0  0  0  0  0  0  0  0  0  0
   -5.2500   -1.2990    0.0000 C   0  0  0  0  0  0  0  0  0  0  0  0
   -6.0000   -2.5981    0.0000 C   0  0  0  0  0  0  0  0  0  0  0  0
   -5.2500   -3.8971    0.0000 C   0  0  0  0  0  0  0  0  0  0  0  0
   -6.0000   -5.1962    0.0000 Cl  0  0  0  0  0  0  0  0  0  0  0  0
   -3.7500   -3.8971    0.0000 C   0  0  0  0  0  0  0  0  0  0  0  0
   -3.0000   -2.5981    0.0000 C   0  0  0  0  0  0  0  0  0  0  0  0
   -0.7500    1.2990    0.0000 C   0  0  0  0  0  0  0  0  0  0  0  0
    0.7500    1.2990    0.0000 C   0  0  0  0  0  0  0  0  0  0  0  0
  1  2  1  0
  2  3  1  0
  3  4  1  0
  4  5  1  0
  5  6  1  0
  6  7  1  0
  7  8  2  0
  8  9  1  0
  9 10  2  0
 10 11  1  0
 11 12  2  0
  6 13  1  0
 13 14  2  0
 14 15  1  0
 15 16  2  0
 16 17  1  0
 16 18  1  0
 18 19  2  0
  5 20  1  0
 20 21  1  0
 21  2  1  0
 12  7  1  0
 19 13  1  0
M  END
>  <Synonyms>  (551) 
CHLORCYCLIZINE

>  <Research Codes>  (551) 
nan

>  <Phase>  (551) 
1

>  <Applicants>  (551) 
nan

>  <USAN Stem>  (551) 
nan

>  <USAN Year>  (551) 
nan

>  <USAN Stem Definition>  (551) 
nan

>  <USAN Stem Substem>  (551) 
nan

>  <First Approval>  (551) 
nan

>  <ATC Codes>  (551) 
R06AE04

>  <Level 4 ATC Codes>  (551) 
R06AE - Piperazine derivatives

>  <Level 3 ATC Codes>  (551) 
R06A - ANTIHISTAMINES FOR SYSTEMIC USE

>  <Level 2 ATC Codes>  (551) 
R06 - ANTIHISTAMINES FOR SYSTEMIC USE

>  <Level 1 ATC Codes>  (551) 
R - RESPIRATORY SYSTEM

>  <Indication Class>  (551) 
nan

>  <Patent>  (551) 
nan

>  <Drug Type>  (551) 
1:Synthetic Small Molecule

>  <Passes Rule of Five>  (551) 
True

>  <First In Class>  (551) 
False

>  <Chirality>  (551) 
Racemic Mixture

>  <Prodrug>  (551) 
False

>  <Oral>  (551) 
False

>  <Parenteral>  (551) 
False

>  <Topical>  (551) 
False

>  <Black Box>  (551) 
False

>  <Availability Type>  (551) 
Unknown

>  <Withdrawn Year>  (551) 
nan

>  <Withdrawn Reason>  (551) 
nan

>  <Withdrawn Country>  (551) 
nan

>  <Withdrawn Class>  (551) 
nan

>  <SMILES>  (551) 
CN1CCN(C(c2ccccc2)c2ccc(Cl)cc2)CC1

>  <InChi Key>  (551) 
WFNAKBGANONZEQ-UHFFFAOYSA-N

$$$$
CHEMBL4211107
     RDKit          2D

 26 28  0  0  0  0  0  0  0  0999 V2000
    3.7500   -1.2990    0.0000 C   0  0  0  0  0  0  0  0  0  0  0  0
    3.0000    0.0000    0.0000 O   0  0  0  0  0  0  0  0  0  0  0  0
    1.5000    0.0000    0.0000 C   0  0  0  0  0  0  0  0  0  0  0  0
    0.7500   -1.2990    0.0000 C   0  0  0  0  0  0  0  0  0  0  0  0
   -0.7500   -1.2990    0.0000 C   0  0  0  0  0  0  0  0  0  0  0  0
   -1.5000    0.0000    0.0000 C   0  0  0  0  0  0  0  0  0  0  0  0
   -3.0000    0.0000    0.0000 C   0  0  0  0  0  0  0  0  0  0  0  0
   -3.7500    1.2990    0.0000 C   0  0  0  0  0  0  0  0  0  0  0  0
   -5.2500    1.2990    0.0000 C   0  0  0  0  0  0  0  0  0  0  0  0
   -6.0000    2.5981    0.0000 C   0  0  0  0  0  0  0  0  0  0  0  0
   -6.0000    0.0000    0.0000 C   0  0  0  0  0  0  0  0  0  0  0  0
   -7.5000    0.0000    0.0000 O   0  0  0  0  0  0  0  0  0  0  0  0
   -5.2500   -1.2990    0.0000 O   0  0  0  0  0  0  0  0  0  0  0  0
   -6.0000   -2.5981    0.0000 C   0  0  0  0  0  0  0  0  0  0  0  0
   -7.5000   -2.5981    0.0000 C   0  0  0  0  0  0  0  0  0  0  0  0
   -8.2500   -3.8971    0.0000 C   0  0  0  0  0  0  0  0  0  0  0  0
   -7.5000   -5.1962    0.0000 C   0  0  0  0  0  0  0  0  0  0  0  0
   -8.2500   -6.4952    0.0000 C   0  0  0  0  0  0  0  0  0  0  0  0
   -9.7500   -6.4952    0.0000 N   0  0  0  0  0  0  0  0  0  0  0  0
   -7.5000   -7.7942    0.0000 S   0  0  0  0  0  0  0  0  0  0  0  0
   -6.0000   -5.1962    0.0000 C   0  0  0  0  0  0  0  0  0  0  0  0
   -5.2500   -3.8971    0.0000 C   0  0  0  0  0  0  0  0  0  0  0  0
   -3.0000    2.5981    0.0000 C   0  0  0  0  0  0  0  0  0  0  0  0
   -1.5000    2.5981    0.0000 C   0  0  0  0  0  0  0  0  0  0  0  0
   -0.7500    1.2990    0.0000 C   0  0  0  0  0  0  0  0  0  0  0  0
    0.7500    1.2990    0.0000 C   0  0  0  0  0  0  0  0  0  0  0  0
  1  2  1  0
  2  3  1  0
  3  4  2  0
  4  5  1  0
  5  6  2  0
  6  7  1  0
  7  8  2  0
  8  9  1  0
  9 10  1  0
  9 11  1  0
 11 12  2  0
 11 13  1  0
 13 14  1  0
 14 15  2  0
 15 16  1  0
 16 17  2  0
 17 18  1  0
 18 19  1  0
 18 20  2  0
 17 21  1  0
 21 22  2  0
  8 23  1  0
 23 24  2  0
 24 25  1  0
 25 26  2  0
 26  3  1  0
 25  6  1  0
 22 14  1  0
M  END
>  <Synonyms>  (552) 
ATB-346

>  <Research Codes>  (552) 
nan

>  <Phase>  (552) 
1

>  <Applicants>  (552) 
nan

>  <USAN Stem>  (552) 
nan

>  <USAN Year>  (552) 
nan

>  <USAN Stem Definition>  (552) 
nan

>  <USAN Stem Substem>  (552) 
nan

>  <First Approval>  (552) 
nan

>  <ATC Codes>  (552) 
nan

>  <Level 4 ATC Codes>  (552) 
nan

>  <Level 3 ATC Codes>  (552) 
nan

>  <Level 2 ATC Codes>  (552) 
nan

>  <Level 1 ATC Codes>  (552) 
nan

>  <Indication Class>  (552) 
nan

>  <Patent>  (552) 
nan

>  <Drug Type>  (552) 
1:Synthetic Small Molecule

>  <Passes Rule of Five>  (552) 
True

>  <First In Class>  (552) 
False

>  <Chirality>  (552) 
Racemic Mixture

>  <Prodrug>  (552) 
False

>  <Oral>  (552) 
False

>  <Parenteral>  (552) 
False

>  <Topical>  (552) 
False

>  <Black Box>  (552) 
False

>  <Availability Type>  (552) 
Unknown

>  <Withdrawn Year>  (552) 
nan

>  <Withdrawn Reason>  (552) 
nan

>  <Withdrawn Country>  (552) 
nan

>  <Withdrawn Class>  (552) 
nan

>  <SMILES>  (552) 
COc1ccc2cc(C(C)C(=O)Oc3ccc(C(N)=S)cc3)ccc2c1

>  <InChi Key>  (552) 
YCNMAPLPQYQJFC-UHFFFAOYSA-N

$$$$
CHEMBL21536
     RDKit          2D

 19 20  0  0  0  0  0  0  0  0999 V2000
   -6.3696   -9.4956    0.0000 C   0  0  0  0  0  0  0  0  0  0  0  0
   -4.9023   -9.1838    0.0000 C   0  0  0  0  0  0  0  0  0  0  0  0
   -4.4388   -7.7572    0.0000 C   0  0  0  0  0  0  0  0  0  0  0  0
   -2.9716   -7.4453    0.0000 C   0  0  0  0  0  0  0  0  0  0  0  0
   -2.5081   -6.0187    0.0000 C   0  0  0  0  0  0  0  0  0  0  0  0
   -1.0409   -5.7068    0.0000 C   0  0  0  0  0  0  0  0  0  0  0  0
   -0.5773   -4.2803    0.0000 O   0  0  0  0  0  0  0  0  0  0  0  0
    0.8899   -3.9684    0.0000 C   0  0  0  0  0  0  0  0  0  0  0  0
    2.0046   -4.9721    0.0000 N   0  0  0  0  0  0  0  0  0  0  0  0
    3.3037   -4.2221    0.0000 S   0  0  0  0  0  0  0  0  0  0  0  0
    2.9918   -2.7549    0.0000 N   0  0  0  0  0  0  0  0  0  0  0  0
    1.5000   -2.5981    0.0000 C   0  0  0  0  0  0  0  0  0  0  0  0
    0.7500   -1.2990    0.0000 C   0  0  0  0  0  0  0  0  0  0  0  0
    1.5000    0.0000    0.0000 C   0  0  0  0  0  0  0  0  0  0  0  0
    0.7500    1.2990    0.0000 C   0  0  0  0  0  0  0  0  0  0  0  0
   -0.7500    1.2990    0.0000 C   0  0  0  0  0  0  0  0  0  0  0  0
   -1.5000    0.0000    0.0000 N   0  0  0  0  0  0  0  0  0  0  0  0
   -3.0000    0.0000    0.0000 C   0  0  0  0  0  0  0  0  0  0  0  0
   -0.7500   -1.2990    0.0000 C   0  0  0  0  0  0  0  0  0  0  0  0
  1  2  1  0
  2  3  1  0
  3  4  1  0
  4  5  1  0
  5  6  1  0
  6  7  1  0
  7  8  1  0
  8  9  2  0
  9 10  1  0
 10 11  1  0
 11 12  2  0
 12 13  1  0
 13 14  2  0
 14 15  1  0
 15 16  1  0
 16 17  1  0
 17 18  1  0
 17 19  1  0
 12  8  1  0
 19 13  1  0
M  END
>  <Synonyms>  (553) 
XANOMELINE

>  <Research Codes>  (553) 
nan

>  <Phase>  (553) 
1

>  <Applicants>  (553) 
nan

>  <USAN Stem>  (553) 
'-meline'

>  <USAN Year>  (553) 
1994.0

>  <USAN Stem Definition>  (553) 
cholinergic agonists (arecoline derivatives used in treatment of Alzheimer disease)

>  <USAN Stem Substem>  (553) 
'-meline(-meline)'

>  <First Approval>  (553) 
nan

>  <ATC Codes>  (553) 
nan

>  <Level 4 ATC Codes>  (553) 
nan

>  <Level 3 ATC Codes>  (553) 
nan

>  <Level 2 ATC Codes>  (553) 
nan

>  <Level 1 ATC Codes>  (553) 
nan

>  <Indication Class>  (553) 
Alzheimer's Disease Treatment (cholinergic agonist)

>  <Patent>  (553) 
nan

>  <Drug Type>  (553) 
1:Synthetic Small Molecule

>  <Passes Rule of Five>  (553) 
True

>  <First In Class>  (553) 
False

>  <Chirality>  (553) 
Achiral Molecule

>  <Prodrug>  (553) 
False

>  <Oral>  (553) 
False

>  <Parenteral>  (553) 
False

>  <Topical>  (553) 
False

>  <Black Box>  (553) 
False

>  <Availability Type>  (553) 
Unknown

>  <Withdrawn Year>  (553) 
nan

>  <Withdrawn Reason>  (553) 
nan

>  <Withdrawn Country>  (553) 
nan

>  <Withdrawn Class>  (553) 
nan

>  <SMILES>  (553) 
CCCCCCOc1nsnc1C1=CCCN(C)C1

>  <InChi Key>  (553) 
JOLJIIDDOBNFHW-UHFFFAOYSA-N

$$$$
CHEMBL1952329
     RDKit          2D

 29 32  0  0  0  0  0  0  0  0999 V2000
    3.7500   -9.0933    0.0000 C   0  0  0  0  0  0  0  0  0  0  0  0
    3.0000   -7.7942    0.0000 N   0  0  0  0  0  0  0  0  0  0  0  0
    1.5000   -7.7942    0.0000 C   0  0  0  0  0  0  0  0  0  0  0  0
    0.7500   -6.4952    0.0000 C   0  0  0  0  0  0  0  0  0  0  0  0
    1.5000   -5.1962    0.0000 C   0  0  0  0  0  0  0  0  0  0  0  0
    0.7500   -3.8971    0.0000 C   0  0  0  0  0  0  0  0  0  0  0  0
    1.5000   -2.5981    0.0000 N   0  0  0  0  0  0  0  0  0  0  0  0
    0.7500   -1.2990    0.0000 C   0  0  0  0  0  0  0  0  0  0  0  0
    1.5000    0.0000    0.0000 C   0  0  0  0  0  0  0  0  0  0  0  0
    0.7500    1.2990    0.0000 C   0  0  0  0  0  0  0  0  0  0  0  0
   -0.7500    1.2990    0.0000 C   0  0  0  0  0  0  0  0  0  0  0  0
   -1.7537    2.4138    0.0000 N   0  0  0  0  0  0  0  0  0  0  0  0
   -3.1240    1.8037    0.0000 C   0  0  0  0  0  0  0  0  0  0  0  0
   -2.9672    0.3119    0.0000 C   0  0  0  0  0  0  0  0  0  0  0  0
   -4.0819   -0.6918    0.0000 C   0  0  0  0  0  0  0  0  0  0  0  0
   -5.5085   -0.2283    0.0000 C   0  0  0  0  0  0  0  0  0  0  0  0
   -6.6232   -1.2320    0.0000 C   0  0  0  0  0  0  0  0  0  0  0  0
   -6.3114   -2.6992    0.0000 C   0  0  0  0  0  0  0  0  0  0  0  0
   -4.8848   -3.1627    0.0000 C   0  0  0  0  0  0  0  0  0  0  0  0
   -4.5729   -4.6300    0.0000 O   0  0  0  0  0  0  0  0  0  0  0  0
   -5.6876   -5.6337    0.0000 C   0  0  0  0  0  0  0  0  0  0  0  0
   -6.8024   -6.6374    0.0000 F   0  0  0  0  0  0  0  0  0  0  0  0
   -4.6839   -6.7484    0.0000 F   0  0  0  0  0  0  0  0  0  0  0  0
   -6.6913   -4.5189    0.0000 F   0  0  0  0  0  0  0  0  0  0  0  0
   -3.7701   -2.1590    0.0000 C   0  0  0  0  0  0  0  0  0  0  0  0
   -1.5000    0.0000    0.0000 N   0  0  0  0  0  0  0  0  0  0  0  0
   -0.7500   -1.2990    0.0000 N   0  0  0  0  0  0  0  0  0  0  0  0
    3.0000   -5.1962    0.0000 C   0  0  0  0  0  0  0  0  0  0  0  0
    3.7500   -6.4952    0.0000 C   0  0  0  0  0  0  0  0  0  0  0  0
  1  2  1  0
  2  3  1  0
  3  4  1  0
  4  5  1  0
  5  6  1  0
  6  7  1  0
  7  8  2  3
  8  9  1  0
  9 10  2  0
 10 11  1  0
 11 12  2  0
 12 13  1  0
 13 14  2  0
 14 15  1  0
 15 16  2  0
 16 17  1  0
 17 18  2  0
 18 19  1  0
 19 20  1  0
 20 21  1  0
 21 22  1  0
 21 23  1  0
 21 24  1  0
 19 25  2  0
 14 26  1  0
 26 27  1  0
  5 28  1  0
 28 29  1  0
 29  2  1  0
 27  8  1  0
 26 11  1  0
 25 15  1  0
M  END
>  <Synonyms>  (554) 
SGI-1776

>  <Research Codes>  (554) 
SGI-1776

>  <Phase>  (554) 
1

>  <Applicants>  (554) 
nan

>  <USAN Stem>  (554) 
nan

>  <USAN Year>  (554) 
nan

>  <USAN Stem Definition>  (554) 
nan

>  <USAN Stem Substem>  (554) 
nan

>  <First Approval>  (554) 
nan

>  <ATC Codes>  (554) 
nan

>  <Level 4 ATC Codes>  (554) 
nan

>  <Level 3 ATC Codes>  (554) 
nan

>  <Level 2 ATC Codes>  (554) 
nan

>  <Level 1 ATC Codes>  (554) 
nan

>  <Indication Class>  (554) 
nan

>  <Patent>  (554) 
nan

>  <Drug Type>  (554) 
1:Synthetic Small Molecule

>  <Passes Rule of Five>  (554) 
True

>  <First In Class>  (554) 
False

>  <Chirality>  (554) 
Achiral Molecule

>  <Prodrug>  (554) 
False

>  <Oral>  (554) 
False

>  <Parenteral>  (554) 
False

>  <Topical>  (554) 
False

>  <Black Box>  (554) 
False

>  <Availability Type>  (554) 
Unknown

>  <Withdrawn Year>  (554) 
nan

>  <Withdrawn Reason>  (554) 
nan

>  <Withdrawn Country>  (554) 
nan

>  <Withdrawn Class>  (554) 
nan

>  <SMILES>  (554) 
CN1CCC(CNc2ccc3ncc(-c4cccc(OC(F)(F)F)c4)n3n2)CC1

>  <InChi Key>  (554) 
MHXGEROHKGDZGO-UHFFFAOYSA-N

$$$$
CHEMBL299155
     RDKit          2D

 14 15  0  0  0  0  0  0  0  0999 V2000
   -3.0000   -5.1962    0.0000 O   0  0  0  0  0  0  0  0  0  0  0  0
   -1.5000   -5.1962    0.0000 C   0  0  0  0  0  0  0  0  0  0  0  0
   -0.7500   -6.4952    0.0000 O   0  0  0  0  0  0  0  0  0  0  0  0
   -0.7500   -3.8971    0.0000 C   0  0  0  0  0  0  0  0  0  0  0  0
    0.7500   -3.8971    0.0000 C   0  0  0  0  0  0  0  0  0  0  0  0
    1.5000   -2.5981    0.0000 C   0  0  0  0  0  0  0  0  0  0  0  0
    3.0000   -2.5981    0.0000 O   0  0  0  0  0  0  0  0  0  0  0  0
    0.7500   -1.2990    0.0000 C   0  0  0  0  0  0  0  0  0  0  0  0
    1.5000    0.0000    0.0000 C   0  0  0  0  0  0  0  0  0  0  0  0
    0.7500    1.2990    0.0000 C   0  0  0  0  0  0  0  0  0  0  0  0
   -0.7500    1.2990    0.0000 C   0  0  0  0  0  0  0  0  0  0  0  0
   -1.5000    0.0000    0.0000 C   0  0  0  0  0  0  0  0  0  0  0  0
   -0.7500   -1.2990    0.0000 C   0  0  0  0  0  0  0  0  0  0  0  0
   -1.5000   -2.5981    0.0000 N   0  0  0  0  0  0  0  0  0  0  0  0
  1  2  2  0
  2  3  1  0
  2  4  1  0
  4  5  2  0
  5  6  1  0
  6  7  2  0
  6  8  1  0
  8  9  2  0
  9 10  1  0
 10 11  2  0
 11 12  1  0
 12 13  2  0
 13 14  1  0
 14  4  1  0
 13  8  1  0
M  END
>  <Synonyms>  (555) 
Kynurenic Acid|TRANSTORINE

>  <Research Codes>  (555) 
nan

>  <Phase>  (555) 
1

>  <Applicants>  (555) 
nan

>  <USAN Stem>  (555) 
nan

>  <USAN Year>  (555) 
nan

>  <USAN Stem Definition>  (555) 
nan

>  <USAN Stem Substem>  (555) 
nan

>  <First Approval>  (555) 
nan

>  <ATC Codes>  (555) 
nan

>  <Level 4 ATC Codes>  (555) 
nan

>  <Level 3 ATC Codes>  (555) 
nan

>  <Level 2 ATC Codes>  (555) 
nan

>  <Level 1 ATC Codes>  (555) 
nan

>  <Indication Class>  (555) 
nan

>  <Patent>  (555) 
nan

>  <Drug Type>  (555) 
1:Synthetic Small Molecule

>  <Passes Rule of Five>  (555) 
True

>  <First In Class>  (555) 
False

>  <Chirality>  (555) 
Unknown

>  <Prodrug>  (555) 
False

>  <Oral>  (555) 
False

>  <Parenteral>  (555) 
False

>  <Topical>  (555) 
False

>  <Black Box>  (555) 
False

>  <Availability Type>  (555) 
Unknown

>  <Withdrawn Year>  (555) 
nan

>  <Withdrawn Reason>  (555) 
nan

>  <Withdrawn Country>  (555) 
nan

>  <Withdrawn Class>  (555) 
nan

>  <SMILES>  (555) 
O=C(O)c1cc(=O)c2ccccc2[nH]1

>  <InChi Key>  (555) 
HCZHHEIFKROPDY-UHFFFAOYSA-N

$$$$
CHEMBL1236282
     RDKit          2D

 21 21  0  0  0  0  0  0  0  0999 V2000
    4.5000    0.0000    0.0000 C   0  0  0  0  0  0  0  0  0  0  0  0
    3.0000    0.0000    0.0000 S   0  0  0  0  0  0  0  0  0  0  0  0
    3.0000    1.5000    0.0000 O   0  0  0  0  0  0  0  0  0  0  0  0
    3.0000   -1.5000    0.0000 O   0  0  0  0  0  0  0  0  0  0  0  0
    1.5000    0.0000    0.0000 C   0  0  0  0  0  0  0  0  0  0  0  0
    0.7500   -1.2990    0.0000 C   0  0  0  0  0  0  0  0  0  0  0  0
   -0.7500   -1.2990    0.0000 C   0  0  0  0  0  0  0  0  0  0  0  0
   -1.5000    0.0000    0.0000 C   0  0  0  0  0  0  0  0  0  0  0  0
   -3.0000    0.0000    0.0000 C   0  0  0  0  0  0  0  0  0  0  0  0
   -3.7500   -1.2990    0.0000 O   0  0  0  0  0  0  0  0  0  0  0  0
   -3.7500    1.2990    0.0000 C   0  0  0  0  0  0  0  0  0  0  0  0
   -5.2500    1.2990    0.0000 C   0  0  0  0  0  0  0  0  0  0  0  0
   -6.0000    2.5981    0.0000 O   0  0  0  0  0  0  0  0  0  0  0  0
   -3.0000    2.5981    0.0000 N   0  0  0  0  0  0  0  0  0  0  0  0
   -3.7500    3.8971    0.0000 C   0  0  0  0  0  0  0  0  0  0  0  0
   -5.2500    3.8971    0.0000 O   0  0  0  0  0  0  0  0  0  0  0  0
   -3.0000    5.1962    0.0000 C   0  0  0  0  0  0  0  0  0  0  0  0
   -3.7500    6.4952    0.0000 Cl  0  0  0  0  0  0  0  0  0  0  0  0
   -1.5000    5.1962    0.0000 Cl  0  0  0  0  0  0  0  0  0  0  0  0
   -0.7500    1.2990    0.0000 C   0  0  0  0  0  0  0  0  0  0  0  0
    0.7500    1.2990    0.0000 C   0  0  0  0  0  0  0  0  0  0  0  0
  1  2  1  0
  2  3  2  0
  2  4  2  0
  2  5  1  0
  5  6  2  0
  6  7  1  0
  7  8  2  0
  8  9  1  0
  9 10  1  1
  9 11  1  0
 11 12  1  1
 12 13  1  0
 11 14  1  0
 14 15  1  0
 15 16  2  0
 15 17  1  0
 17 18  1  0
 17 19  1  0
  8 20  1  0
 20 21  2  0
 21  5  1  0
M  END
>  <Synonyms>  (556) 
Dextrosulphenidol|NSC-522822|THIAMPHENICOL|THIAMPHENICOL AMINOACETATE HYDROCHLORIDE|THIOCYMETIN|Thiophenicol|WIN 5063-2|WIN-5063-2

>  <Research Codes>  (556) 
NSC-522822|WIN-5063-2|WIN-50632

>  <Phase>  (556) 
1

>  <Applicants>  (556) 
nan

>  <USAN Stem>  (556) 
nan

>  <USAN Year>  (556) 
1968.0

>  <USAN Stem Definition>  (556) 
nan

>  <USAN Stem Substem>  (556) 
nan

>  <First Approval>  (556) 
nan

>  <ATC Codes>  (556) 
J01BA52 | J01BA02

>  <Level 4 ATC Codes>  (556) 
J01BA - Amphenicols | J01BA - Amphenicols

>  <Level 3 ATC Codes>  (556) 
J01B - AMPHENICOLS | J01B - AMPHENICOLS

>  <Level 2 ATC Codes>  (556) 
J01 - ANTIBACTERIALS FOR SYSTEMIC USE | J01 - ANTIBACTERIALS FOR SYSTEMIC USE

>  <Level 1 ATC Codes>  (556) 
J - ANTIINFECTIVES FOR SYSTEMIC USE | J - ANTIINFECTIVES FOR SYSTEMIC USE

>  <Indication Class>  (556) 
Antibacterial

>  <Patent>  (556) 
nan

>  <Drug Type>  (556) 
1:Synthetic Small Molecule

>  <Passes Rule of Five>  (556) 
True

>  <First In Class>  (556) 
False

>  <Chirality>  (556) 
Single Stereoisomer

>  <Prodrug>  (556) 
False

>  <Oral>  (556) 
False

>  <Parenteral>  (556) 
False

>  <Topical>  (556) 
False

>  <Black Box>  (556) 
False

>  <Availability Type>  (556) 
Unknown

>  <Withdrawn Year>  (556) 
nan

>  <Withdrawn Reason>  (556) 
nan

>  <Withdrawn Country>  (556) 
nan

>  <Withdrawn Class>  (556) 
nan

>  <SMILES>  (556) 
CS(=O)(=O)c1ccc([C@@H](O)[C@@H](CO)NC(=O)C(Cl)Cl)cc1

>  <InChi Key>  (556) 
OTVAEFIXJLOWRX-NXEZZACHSA-N

$$$$
CHEMBL445332
     RDKit          2D

 31 34  0  0  0  0  0  0  0  0999 V2000
    5.2500   -3.8971    0.0000 C   0  0  0  0  0  0  0  0  0  0  0  0
    3.7500   -3.8971    0.0000 O   0  0  0  0  0  0  0  0  0  0  0  0
    3.0000   -2.5981    0.0000 C   0  0  0  0  0  0  0  0  0  0  0  0
    3.7500   -1.2990    0.0000 O   0  0  0  0  0  0  0  0  0  0  0  0
    1.5000   -2.5981    0.0000 C   0  0  0  0  0  0  0  0  0  0  0  0
    0.7500   -3.8971    0.0000 C   0  0  0  0  0  0  0  0  0  0  0  0
   -0.7500   -3.8971    0.0000 C   0  0  0  0  0  0  0  0  0  0  0  0
   -1.5000   -5.1962    0.0000 O   0  0  0  0  0  0  0  0  0  0  0  0
   -3.0000   -5.1962    0.0000 C   0  0  0  0  0  0  0  0  0  0  0  0
   -3.7500   -6.4952    0.0000 C   0  0  0  0  0  0  0  0  0  0  0  0
   -3.7500   -3.8971    0.0000 O   0  0  0  0  0  0  0  0  0  0  0  0
   -1.5000   -2.5981    0.0000 C   0  0  0  0  0  0  0  0  0  0  0  0
   -3.0000   -2.5981    0.0000 O   0  0  0  0  0  0  0  0  0  0  0  0
   -0.7500   -1.2990    0.0000 C   0  0  0  0  0  0  0  0  0  0  0  0
    0.7500   -1.2990    0.0000 C   0  0  0  0  0  0  0  0  0  0  0  0
    2.2500   -1.2990    0.0000 C   0  0  0  0  0  0  0  0  0  0  0  0
    1.5000    0.0000    0.0000 C   0  0  0  0  0  0  0  0  0  0  0  0
    0.7500    1.2990    0.0000 C   0  0  0  0  0  0  0  0  0  0  0  0
   -0.7500    1.2990    0.0000 C   0  0  0  0  0  0  0  0  0  0  0  0
   -1.5000    2.5981    0.0000 C   0  0  0  0  0  0  0  0  0  0  0  0
   -0.7500    3.8971    0.0000 O   0  0  0  0  0  0  0  0  0  0  0  0
   -3.0000    2.5981    0.0000 O   0  0  0  0  0  0  0  0  0  0  0  0
   -3.7500    1.2990    0.0000 C   0  0  0  0  0  0  0  0  0  0  0  0
   -5.2500    1.2990    0.0000 C   0  0  0  0  0  0  0  0  0  0  0  0
   -6.1317    0.0855    0.0000 C   0  0  0  0  0  0  0  0  0  0  0  0
   -7.5583    0.5490    0.0000 C   0  0  0  0  0  0  0  0  0  0  0  0
   -7.5583    2.0490    0.0000 O   0  0  0  0  0  0  0  0  0  0  0  0
   -6.1317    2.5126    0.0000 C   0  0  0  0  0  0  0  0  0  0  0  0
   -3.0000    0.0000    0.0000 C   0  0  0  0  0  0  0  0  0  0  0  0
   -1.5000    0.0000    0.0000 C   0  0  0  0  0  0  0  0  0  0  0  0
   -2.2500   -1.2990    0.0000 C   0  0  0  0  0  0  0  0  0  0  0  0
  1  2  1  0
  2  3  1  0
  3  4  2  0
  3  5  1  0
  5  6  1  0
  6  7  1  0
  7  8  1  0
  8  9  1  0
  9 10  1  0
  9 11  2  0
  7 12  1  0
 12 13  2  0
 12 14  1  0
 14 15  1  0
 15 16  1  6
 15 17  1  0
 17 18  1  0
 18 19  1  0
 19 20  1  0
 20 21  2  0
 20 22  1  0
 22 23  1  0
 23 24  1  1
 24 25  1  0
 25 26  2  0
 26 27  1  0
 27 28  1  0
 23 29  1  0
 29 30  1  0
 30 31  1  6
 15  5  1  0
 30 19  1  0
 30 14  1  0
 28 24  2  0
M  END
>  <Synonyms>  (557) 
SALVINORIN A

>  <Research Codes>  (557) 
nan

>  <Phase>  (557) 
1

>  <Applicants>  (557) 
nan

>  <USAN Stem>  (557) 
'-vin-; sal-'

>  <USAN Year>  (557) 
nan

>  <USAN Stem Definition>  (557) 
vinca alkaloids; anti-inflammatory agents (salicylic acid derivatives)

>  <USAN Stem Substem>  (557) 
'-vin-(-vin-); sal-(sal-)'

>  <First Approval>  (557) 
nan

>  <ATC Codes>  (557) 
nan

>  <Level 4 ATC Codes>  (557) 
nan

>  <Level 3 ATC Codes>  (557) 
nan

>  <Level 2 ATC Codes>  (557) 
nan

>  <Level 1 ATC Codes>  (557) 
nan

>  <Indication Class>  (557) 
nan

>  <Patent>  (557) 
nan

>  <Drug Type>  (557) 
1:Synthetic Small Molecule

>  <Passes Rule of Five>  (557) 
True

>  <First In Class>  (557) 
False

>  <Chirality>  (557) 
Single Stereoisomer

>  <Prodrug>  (557) 
False

>  <Oral>  (557) 
False

>  <Parenteral>  (557) 
False

>  <Topical>  (557) 
False

>  <Black Box>  (557) 
False

>  <Availability Type>  (557) 
Unknown

>  <Withdrawn Year>  (557) 
nan

>  <Withdrawn Reason>  (557) 
nan

>  <Withdrawn Country>  (557) 
nan

>  <Withdrawn Class>  (557) 
nan

>  <SMILES>  (557) 
COC(=O)[C@@H]1C[C@H](OC(C)=O)C(=O)[C@H]2[C@@]1(C)CC[C@H]1C(=O)O[C@H](c3ccoc3)C[C@]21C

>  <InChi Key>  (557) 
OBSYBRPAKCASQB-DEXCXCDCSA-N

$$$$
CHEMBL1622638
     RDKit          2D

 19 21  0  0  0  0  0  0  0  0999 V2000
    1.5000   -7.7942    0.0000 C   0  0  0  0  0  0  0  0  0  0  0  0
    0.7500   -6.4952    0.0000 C   0  0  0  0  0  0  0  0  0  0  0  0
    1.5000   -5.1962    0.0000 C   0  0  0  0  0  0  0  0  0  0  0  0
    0.7500   -3.8971    0.0000 C   0  0  0  0  0  0  0  0  0  0  0  0
    1.5000   -2.5981    0.0000 N   0  0  0  0  0  0  0  0  0  0  0  0
    0.7500   -1.2990    0.0000 C   0  0  0  0  0  0  0  0  0  0  0  0
    1.5000    0.0000    0.0000 C   0  0  0  0  0  0  0  0  0  0  0  0
    0.7500    1.2990    0.0000 C   0  0  0  0  0  0  0  0  0  0  0  0
   -0.7500    1.2990    0.0000 C   0  0  0  0  0  0  0  0  0  0  0  0
   -1.5000    2.5981    0.0000 N   0  0  0  0  0  0  0  0  0  0  0  0
   -0.7500    3.8971    0.0000 C   0  0  0  0  0  0  0  0  0  0  0  0
   -3.0000    2.5981    0.0000 C   0  0  0  0  0  0  0  0  0  0  0  0
   -1.5000    0.0000    0.0000 C   0  0  0  0  0  0  0  0  0  0  0  0
   -0.7500   -1.2990    0.0000 C   0  0  0  0  0  0  0  0  0  0  0  0
   -1.5000   -2.5981    0.0000 S   0  0  0  0  0  3  0  0  0  0  0  0
   -0.7500   -3.8971    0.0000 C   0  0  0  0  0  0  0  0  0  0  0  0
   -1.5000   -5.1962    0.0000 C   0  0  0  0  0  0  0  0  0  0  0  0
   -0.7500   -6.4952    0.0000 C   0  0  0  0  0  0  0  0  0  0  0  0
   -1.5000   -7.7942    0.0000 N   0  0  0  0  0  0  0  0  0  0  0  0
  1  2  1  0
  2  3  2  0
  3  4  1  0
  4  5  2  0
  5  6  1  0
  6  7  2  0
  7  8  1  0
  8  9  2  0
  9 10  1  0
 10 11  1  0
 10 12  1  0
  9 13  1  0
 13 14  2  0
 14 15  1  0
 15 16  2  0
 16 17  1  0
 17 18  2  0
 18 19  1  0
 18  2  1  0
 16  4  1  0
 14  6  1  0
M  CHG  1  15   1
M  END
>  <Synonyms>  (558) 
nan

>  <Research Codes>  (558) 
nan

>  <Phase>  (558) 
1

>  <Applicants>  (558) 
nan

>  <USAN Stem>  (558) 
'-onium'

>  <USAN Year>  (558) 
nan

>  <USAN Stem Definition>  (558) 
quaternary ammonium derivatives

>  <USAN Stem Substem>  (558) 
'-onium(-onium)'

>  <First Approval>  (558) 
nan

>  <ATC Codes>  (558) 
nan

>  <Level 4 ATC Codes>  (558) 
nan

>  <Level 3 ATC Codes>  (558) 
nan

>  <Level 2 ATC Codes>  (558) 
nan

>  <Level 1 ATC Codes>  (558) 
nan

>  <Indication Class>  (558) 
nan

>  <Patent>  (558) 
nan

>  <Drug Type>  (558) 
1:Synthetic Small Molecule

>  <Passes Rule of Five>  (558) 
True

>  <First In Class>  (558) 
False

>  <Chirality>  (558) 
Achiral Molecule

>  <Prodrug>  (558) 
False

>  <Oral>  (558) 
False

>  <Parenteral>  (558) 
False

>  <Topical>  (558) 
False

>  <Black Box>  (558) 
False

>  <Availability Type>  (558) 
Unknown

>  <Withdrawn Year>  (558) 
nan

>  <Withdrawn Reason>  (558) 
nan

>  <Withdrawn Country>  (558) 
nan

>  <Withdrawn Class>  (558) 
nan

>  <SMILES>  (558) 
Cc1cc2nc3ccc(N(C)C)cc3[s+]c2cc1N

>  <InChi Key>  (558) 
RQNADZJRELIICT-UHFFFAOYSA-N

$$$$
CHEMBL1406148
     RDKit          2D

 33 32  0  0  0  0  0  0  0  0999 V2000
    0.0000    0.0000    0.0000 C   0  0  0  0  0  0  0  0  0  0  0  0
    1.2990    0.7500    0.0000 C   0  0  0  0  0  0  0  0  0  0  0  0
    2.5981   -0.0000    0.0000 C   0  0  0  0  0  0  0  0  0  0  0  0
    3.8971    0.7500    0.0000 C   0  0  0  0  0  0  0  0  0  0  0  0
    5.1962   -0.0000    0.0000 C   0  0  0  0  0  0  0  0  0  0  0  0
    6.4952    0.7500    0.0000 C   0  0  0  0  0  0  0  0  0  0  0  0
    7.7942   -0.0000    0.0000 C   0  0  0  0  0  0  0  0  0  0  0  0
    9.0933    0.7500    0.0000 C   0  0  0  0  0  0  0  0  0  0  0  0
   10.3923   -0.0000    0.0000 O   0  0  0  0  0  0  0  0  0  0  0  0
    9.0933    2.2500    0.0000 O   0  0  0  0  0  0  0  0  0  0  0  0
   10.3923    3.0000    0.0000 C   0  0  0  0  0  0  0  0  0  0  0  0
   10.3923    4.5000    0.0000 C   0  0  0  0  0  0  0  0  0  0  0  0
   11.6913    5.2500    0.0000 C   0  0  0  0  0  0  0  0  0  0  0  0
   11.6913    6.7500    0.0000 O   0  0  0  0  0  0  0  0  0  0  0  0
   12.9904    7.5000    0.0000 C   0  0  0  0  0  0  0  0  0  0  0  0
   14.2894    6.7500    0.0000 O   0  0  0  0  0  0  0  0  0  0  0  0
   12.9904    9.0000    0.0000 C   0  0  0  0  0  0  0  0  0  0  0  0
   14.2894    9.7500    0.0000 C   0  0  0  0  0  0  0  0  0  0  0  0
   14.2894   11.2500    0.0000 C   0  0  0  0  0  0  0  0  0  0  0  0
   15.5885   12.0000    0.0000 C   0  0  0  0  0  0  0  0  0  0  0  0
   15.5885   13.5000    0.0000 C   0  0  0  0  0  0  0  0  0  0  0  0
   16.8875   14.2500    0.0000 C   0  0  0  0  0  0  0  0  0  0  0  0
   16.8875   15.7500    0.0000 C   0  0  0  0  0  0  0  0  0  0  0  0
    9.0933    5.2500    0.0000 O   0  0  0  0  0  0  0  0  0  0  0  0
    9.0933    6.7500    0.0000 C   0  0  0  0  0  0  0  0  0  0  0  0
   10.3923    7.5000    0.0000 O   0  0  0  0  0  0  0  0  0  0  0  0
    7.7942    7.5000    0.0000 C   0  0  0  0  0  0  0  0  0  0  0  0
    7.7942    9.0000    0.0000 C   0  0  0  0  0  0  0  0  0  0  0  0
    6.4952    9.7500    0.0000 C   0  0  0  0  0  0  0  0  0  0  0  0
    6.4952   11.2500    0.0000 C   0  0  0  0  0  0  0  0  0  0  0  0
    5.1962   12.0000    0.0000 C   0  0  0  0  0  0  0  0  0  0  0  0
    5.1962   13.5000    0.0000 C   0  0  0  0  0  0  0  0  0  0  0  0
    3.8971   14.2500    0.0000 C   0  0  0  0  0  0  0  0  0  0  0  0
  1  2  1  0
  2  3  1  0
  3  4  1  0
  4  5  1  0
  5  6  1  0
  6  7  1  0
  7  8  1  0
  8  9  2  0
  8 10  1  0
 10 11  1  0
 11 12  1  0
 12 13  1  0
 13 14  1  0
 14 15  1  0
 15 16  2  0
 15 17  1  0
 17 18  1  0
 18 19  1  0
 19 20  1  0
 20 21  1  0
 21 22  1  0
 22 23  1  0
 12 24  1  0
 24 25  1  0
 25 26  2  0
 25 27  1  0
 27 28  1  0
 28 29  1  0
 29 30  1  0
 30 31  1  0
 31 32  1  0
 32 33  1  0
M  END
>  <Synonyms>  (559) 
AC-1202|AC-1204|CER-0001|NSC-4059|TRICAPRILIN

>  <Research Codes>  (559) 
AC-1202|AC-1204|CER-0001|NSC-4059

>  <Phase>  (559) 
1

>  <Applicants>  (559) 
nan

>  <USAN Stem>  (559) 
nan

>  <USAN Year>  (559) 
2018.0

>  <USAN Stem Definition>  (559) 
nan

>  <USAN Stem Substem>  (559) 
nan

>  <First Approval>  (559) 
nan

>  <ATC Codes>  (559) 
nan

>  <Level 4 ATC Codes>  (559) 
nan

>  <Level 3 ATC Codes>  (559) 
nan

>  <Level 2 ATC Codes>  (559) 
nan

>  <Level 1 ATC Codes>  (559) 
nan

>  <Indication Class>  (559) 
nan

>  <Patent>  (559) 
nan

>  <Drug Type>  (559) 
1:Synthetic Small Molecule

>  <Passes Rule of Five>  (559) 
False

>  <First In Class>  (559) 
False

>  <Chirality>  (559) 
Achiral Molecule

>  <Prodrug>  (559) 
False

>  <Oral>  (559) 
False

>  <Parenteral>  (559) 
False

>  <Topical>  (559) 
False

>  <Black Box>  (559) 
False

>  <Availability Type>  (559) 
Unknown

>  <Withdrawn Year>  (559) 
nan

>  <Withdrawn Reason>  (559) 
nan

>  <Withdrawn Country>  (559) 
nan

>  <Withdrawn Class>  (559) 
nan

>  <SMILES>  (559) 
CCCCCCCC(=O)OCC(COC(=O)CCCCCCC)OC(=O)CCCCCCC

>  <InChi Key>  (559) 
VLPFTAMPNXLGLX-UHFFFAOYSA-N

$$$$
CHEMBL454138
     RDKit          2D

 32 35  0  0  0  0  0  0  0  0999 V2000
    5.2263   -4.4854    0.0000 C   0  0  0  0  0  0  0  0  0  0  0  0
    4.0261   -5.3851    0.0000 C   0  0  0  0  0  0  0  0  0  0  0  0
    4.2052   -6.8744    0.0000 C   0  0  0  0  0  0  0  0  0  0  0  0
    2.6468   -4.7956    0.0000 O   0  0  0  0  0  0  0  0  0  0  0  0
    1.4466   -5.6953    0.0000 C   0  0  0  0  0  0  0  0  0  0  0  0
    1.6257   -7.1846    0.0000 O   0  0  0  0  0  0  0  0  0  0  0  0
    0.0673   -5.1058    0.0000 C   0  0  0  0  0  0  0  0  0  0  0  0
   -1.0623   -6.0927    0.0000 C   0  0  0  0  0  0  0  0  0  0  0  0
   -2.5382   -5.8249    0.0000 N   0  0  0  0  0  0  0  0  0  0  0  0
   -3.4199   -7.0384    0.0000 C   0  0  0  0  0  0  0  0  0  0  0  0
   -2.8098   -8.4087    0.0000 O   0  0  0  0  0  0  0  0  0  0  0  0
   -4.9117   -6.8816    0.0000 C   0  0  0  0  0  0  0  0  0  0  0  0
   -5.5218   -5.5113    0.0000 C   0  0  0  0  0  0  0  0  0  0  0  0
   -7.0136   -5.3545    0.0000 C   0  0  0  0  0  0  0  0  0  0  0  0
   -7.8952   -6.5680    0.0000 C   0  0  0  0  0  0  0  0  0  0  0  0
   -9.3870   -6.4112    0.0000 F   0  0  0  0  0  0  0  0  0  0  0  0
   -7.2851   -7.9383    0.0000 C   0  0  0  0  0  0  0  0  0  0  0  0
   -8.1668   -9.1519    0.0000 F   0  0  0  0  0  0  0  0  0  0  0  0
   -5.7933   -8.0951    0.0000 C   0  0  0  0  0  0  0  0  0  0  0  0
   -3.2490   -4.5040    0.0000 C   0  0  0  0  0  0  0  0  0  0  0  0
   -2.6595   -3.1247    0.0000 C   0  0  0  0  0  0  0  0  0  0  0  0
   -2.7268   -1.6262    0.0000 C   0  0  0  0  0  0  0  0  0  0  0  0
   -4.1354   -2.8568    0.0000 C   0  0  0  0  0  0  0  0  0  0  0  0
   -1.2135   -2.7256    0.0000 C   0  0  0  0  0  0  0  0  0  0  0  0
    0.0000   -3.6073    0.0000 C   0  0  0  0  0  0  0  0  0  0  0  0
    1.2135   -2.7256    0.0000 N   0  0  0  0  0  0  0  0  0  0  0  0
    0.7500   -1.2990    0.0000 C   0  0  0  0  0  0  0  0  0  0  0  0
    1.5000    0.0000    0.0000 C   0  0  0  0  0  0  0  0  0  0  0  0
    0.7500    1.2990    0.0000 C   0  0  0  0  0  0  0  0  0  0  0  0
   -0.7500    1.2990    0.0000 C   0  0  0  0  0  0  0  0  0  0  0  0
   -1.5000    0.0000    0.0000 C   0  0  0  0  0  0  0  0  0  0  0  0
   -0.7500   -1.2990    0.0000 C   0  0  0  0  0  0  0  0  0  0  0  0
  1  2  1  0
  2  3  1  0
  2  4  1  0
  4  5  1  0
  5  6  2  0
  5  7  1  0
  7  8  2  0
  8  9  1  0
  9 10  1  0
 10 11  2  0
 10 12  1  0
 12 13  2  0
 13 14  1  0
 14 15  2  0
 15 16  1  0
 15 17  1  0
 17 18  1  0
 17 19  2  0
  9 20  1  0
 20 21  1  0
 21 22  1  0
 21 23  1  0
 21 24  1  0
 24 25  2  0
 25 26  1  0
 26 27  1  0
 27 28  2  0
 28 29  1  0
 29 30  2  0
 30 31  1  0
 31 32  2  0
 25  7  1  0
 32 27  1  0
 19 12  1  0
 32 24  1  0
M  END
>  <Synonyms>  (560) 
FXR-450|TUROFEXORATE ISOPROPYL|WAY-362450|XL335

>  <Research Codes>  (560) 
FXR-450|WAY-362450|XL-335

>  <Phase>  (560) 
1

>  <Applicants>  (560) 
nan

>  <USAN Stem>  (560) 
'-fexor-; -fexorate'

>  <USAN Year>  (560) 
2008.0

>  <USAN Stem Definition>  (560) 
farnesoid X receptor agonists; farnesoid X receptor agonists

>  <USAN Stem Substem>  (560) 
'-fexor-(-fexor-); -fexorate(-fexorate)'

>  <First Approval>  (560) 
nan

>  <ATC Codes>  (560) 
nan

>  <Level 4 ATC Codes>  (560) 
nan

>  <Level 3 ATC Codes>  (560) 
nan

>  <Level 2 ATC Codes>  (560) 
nan

>  <Level 1 ATC Codes>  (560) 
nan

>  <Indication Class>  (560) 
nan

>  <Patent>  (560) 
nan

>  <Drug Type>  (560) 
1:Synthetic Small Molecule

>  <Passes Rule of Five>  (560) 
False

>  <First In Class>  (560) 
False

>  <Chirality>  (560) 
Achiral Molecule

>  <Prodrug>  (560) 
False

>  <Oral>  (560) 
False

>  <Parenteral>  (560) 
False

>  <Topical>  (560) 
False

>  <Black Box>  (560) 
False

>  <Availability Type>  (560) 
Unknown

>  <Withdrawn Year>  (560) 
nan

>  <Withdrawn Reason>  (560) 
nan

>  <Withdrawn Country>  (560) 
nan

>  <Withdrawn Class>  (560) 
nan

>  <SMILES>  (560) 
CC(C)OC(=O)C1=CN(C(=O)c2ccc(F)c(F)c2)CC(C)(C)c2c1[nH]c1ccccc21

>  <InChi Key>  (560) 
INASOKQDNHHMRE-UHFFFAOYSA-N

$$$$
CHEMBL1980391
     RDKit          2D

 25 28  0  0  0  0  0  0  0  0999 V2000
    2.9048    7.4654    0.0000 C   0  0  0  0  0  0  0  0  0  0  0  0
    1.4183    7.6667    0.0000 O   0  0  0  0  0  0  0  0  0  0  0  0
    0.5008    6.4801    0.0000 C   0  0  0  0  0  0  0  0  0  0  0  0
    1.0696    5.0922    0.0000 C   0  0  0  0  0  0  0  0  0  0  0  0
    0.1520    3.9056    0.0000 C   0  0  0  0  0  0  0  0  0  0  0  0
   -1.3344    4.1069    0.0000 C   0  0  0  0  0  0  0  0  0  0  0  0
   -1.9033    5.4949    0.0000 C   0  0  0  0  0  0  0  0  0  0  0  0
   -0.9857    6.6815    0.0000 C   0  0  0  0  0  0  0  0  0  0  0  0
   -1.5545    8.0694    0.0000 F   0  0  0  0  0  0  0  0  0  0  0  0
   -2.4186    3.0703    0.0000 C   0  0  0  0  0  0  0  0  0  0  0  0
   -3.8230    3.5974    0.0000 C   0  0  0  0  0  0  0  0  0  0  0  0
   -4.0687    5.0771    0.0000 C   0  0  0  0  0  0  0  0  0  0  0  0
   -5.4730    5.6042    0.0000 C   0  0  0  0  0  0  0  0  0  0  0  0
   -6.6317    4.6515    0.0000 C   0  0  0  0  0  0  0  0  0  0  0  0
   -6.3859    3.1718    0.0000 C   0  0  0  0  0  0  0  0  0  0  0  0
   -4.9816    2.6447    0.0000 C   0  0  0  0  0  0  0  0  0  0  0  0
   -4.7359    1.1650    0.0000 Cl  0  0  0  0  0  0  0  0  0  0  0  0
   -2.2841    1.5763    0.0000 N   0  0  0  0  0  0  0  0  0  0  0  0
   -1.0323    0.7500    0.0000 C   0  0  0  0  0  0  0  0  0  0  0  0
    0.3943    1.2135    0.0000 C   0  0  0  0  0  0  0  0  0  0  0  0
    1.2760    0.0000    0.0000 N   0  0  0  0  0  0  0  0  0  0  0  0
    0.3943   -1.2135    0.0000 N   0  0  0  0  0  0  0  0  0  0  0  0
   -1.0323   -0.7500    0.0000 C   0  0  0  0  0  0  0  0  0  0  0  0
   -2.2458   -1.6317    0.0000 C   0  0  0  0  0  0  0  0  0  0  0  0
    0.9214    2.6179    0.0000 N   0  0  0  0  0  0  0  0  0  0  0  0
  1  2  1  0
  2  3  1  0
  3  4  2  0
  4  5  1  0
  5  6  2  0
  6  7  1  0
  7  8  2  0
  8  9  1  0
  6 10  1  0
 10 11  1  0
 11 12  2  0
 12 13  1  0
 13 14  2  0
 14 15  1  0
 15 16  2  0
 16 17  1  0
 10 18  1  0
 18 19  2  0
 19 20  1  0
 20 21  1  0
 21 22  1  0
 22 23  2  0
 23 24  1  0
 20 25  2  0
  8  3  1  0
 16 11  1  0
 23 19  1  0
 25  5  1  0
M  END
>  <Synonyms>  (561) 
R-1530|RG-1530

>  <Research Codes>  (561) 
R-1530|RG-1530

>  <Phase>  (561) 
1

>  <Applicants>  (561) 
nan

>  <USAN Stem>  (561) 
nan

>  <USAN Year>  (561) 
nan

>  <USAN Stem Definition>  (561) 
nan

>  <USAN Stem Substem>  (561) 
nan

>  <First Approval>  (561) 
nan

>  <ATC Codes>  (561) 
nan

>  <Level 4 ATC Codes>  (561) 
nan

>  <Level 3 ATC Codes>  (561) 
nan

>  <Level 2 ATC Codes>  (561) 
nan

>  <Level 1 ATC Codes>  (561) 
nan

>  <Indication Class>  (561) 
nan

>  <Patent>  (561) 
nan

>  <Drug Type>  (561) 
1:Synthetic Small Molecule

>  <Passes Rule of Five>  (561) 
True

>  <First In Class>  (561) 
False

>  <Chirality>  (561) 
Achiral Molecule

>  <Prodrug>  (561) 
False

>  <Oral>  (561) 
False

>  <Parenteral>  (561) 
False

>  <Topical>  (561) 
False

>  <Black Box>  (561) 
False

>  <Availability Type>  (561) 
Unknown

>  <Withdrawn Year>  (561) 
nan

>  <Withdrawn Reason>  (561) 
nan

>  <Withdrawn Country>  (561) 
nan

>  <Withdrawn Class>  (561) 
nan

>  <SMILES>  (561) 
COc1cc2c(cc1F)C(c1ccccc1Cl)=Nc1c(n[nH]c1C)N2

>  <InChi Key>  (561) 
QUTGNUMOFZDLSB-UHFFFAOYSA-N

$$$$
CHEMBL239800
     RDKit          2D

 18 19  0  0  0  0  0  0  0  0999 V2000
   -1.7455   -5.5373    0.0000 C   0  0  0  0  0  0  0  0  0  0  0  0
   -0.7418   -6.6520    0.0000 N   0  0  0  0  0  0  0  0  0  0  0  0
   -1.0537   -8.1192    0.0000 C   0  0  0  0  0  0  0  0  0  0  0  0
    0.2454   -8.8692    0.0000 C   0  0  0  0  0  0  0  0  0  0  0  0
    0.4022  -10.3610    0.0000 O   0  0  0  0  0  0  0  0  0  0  0  0
    1.3601   -7.8655    0.0000 N   0  0  0  0  0  0  0  0  0  0  0  0
    0.7500   -6.4952    0.0000 C   0  0  0  0  0  0  0  0  0  0  0  0
    1.5000   -5.1962    0.0000 N   0  0  0  0  0  0  0  0  0  0  0  0
    0.7500   -3.8971    0.0000 C   0  0  0  0  0  0  0  0  0  0  0  0
   -0.7500   -3.8971    0.0000 O   0  0  0  0  0  0  0  0  0  0  0  0
    1.5000   -2.5981    0.0000 N   0  0  0  0  0  0  0  0  0  0  0  0
    0.7500   -1.2990    0.0000 C   0  0  0  0  0  0  0  0  0  0  0  0
    1.5000    0.0000    0.0000 C   0  0  0  0  0  0  0  0  0  0  0  0
    0.7500    1.2990    0.0000 C   0  0  0  0  0  0  0  0  0  0  0  0
   -0.7500    1.2990    0.0000 C   0  0  0  0  0  0  0  0  0  0  0  0
   -1.5000    0.0000    0.0000 C   0  0  0  0  0  0  0  0  0  0  0  0
   -3.0000    0.0000    0.0000 Cl  0  0  0  0  0  0  0  0  0  0  0  0
   -0.7500   -1.2990    0.0000 C   0  0  0  0  0  0  0  0  0  0  0  0
  1  2  1  0
  2  3  1  0
  3  4  2  0
  4  5  1  0
  4  6  1  0
  6  7  1  0
  7  8  2  3
  8  9  1  0
  9 10  2  0
  9 11  1  0
 11 12  1  0
 12 13  2  0
 13 14  1  0
 14 15  2  0
 15 16  1  0
 16 17  1  0
 16 18  2  0
  7  2  1  0
 18 12  1  0
M  END
>  <Synonyms>  (562) 
FENOBAM|MCN-3377-98

>  <Research Codes>  (562) 
MCN-3377-98

>  <Phase>  (562) 
1

>  <Applicants>  (562) 
nan

>  <USAN Stem>  (562) 
nan

>  <USAN Year>  (562) 
1978.0

>  <USAN Stem Definition>  (562) 
nan

>  <USAN Stem Substem>  (562) 
nan

>  <First Approval>  (562) 
nan

>  <ATC Codes>  (562) 
nan

>  <Level 4 ATC Codes>  (562) 
nan

>  <Level 3 ATC Codes>  (562) 
nan

>  <Level 2 ATC Codes>  (562) 
nan

>  <Level 1 ATC Codes>  (562) 
nan

>  <Indication Class>  (562) 
Sedative-Hypnotic

>  <Patent>  (562) 
nan

>  <Drug Type>  (562) 
1:Synthetic Small Molecule

>  <Passes Rule of Five>  (562) 
True

>  <First In Class>  (562) 
False

>  <Chirality>  (562) 
Achiral Molecule

>  <Prodrug>  (562) 
False

>  <Oral>  (562) 
False

>  <Parenteral>  (562) 
False

>  <Topical>  (562) 
False

>  <Black Box>  (562) 
False

>  <Availability Type>  (562) 
Unknown

>  <Withdrawn Year>  (562) 
nan

>  <Withdrawn Reason>  (562) 
nan

>  <Withdrawn Country>  (562) 
nan

>  <Withdrawn Class>  (562) 
nan

>  <SMILES>  (562) 
CN1CC(=O)N=C1NC(=O)Nc1cccc(Cl)c1

>  <InChi Key>  (562) 
XSGFZVPHOUBKKN-UHFFFAOYSA-N

$$$$
CHEMBL1938870
     RDKit          2D

 29 32  0  0  0  0  0  0  0  0999 V2000
   -2.6140  -10.5987    0.0000 O   0  0  0  0  0  0  0  0  0  0  0  0
   -1.6103   -9.4839    0.0000 C   0  0  0  0  0  0  0  0  0  0  0  0
   -2.0738   -8.0574    0.0000 O   0  0  0  0  0  0  0  0  0  0  0  0
   -0.1430   -9.7958    0.0000 C   0  0  0  0  0  0  0  0  0  0  0  0
    0.8606   -8.6811    0.0000 N   0  0  0  0  0  0  0  0  0  0  0  0
    2.3524   -8.8379    0.0000 N   0  0  0  0  0  0  0  0  0  0  0  0
    2.9625   -7.4676    0.0000 N   0  0  0  0  0  0  0  0  0  0  0  0
    1.8478   -6.4639    0.0000 C   0  0  0  0  0  0  0  0  0  0  0  0
    2.0046   -4.9721    0.0000 C   0  0  0  0  0  0  0  0  0  0  0  0
    0.8899   -3.9684    0.0000 C   0  0  0  0  0  0  0  0  0  0  0  0
    1.5000   -2.5981    0.0000 C   0  0  0  0  0  0  0  0  0  0  0  0
    0.7500   -1.2990    0.0000 N   0  0  0  0  0  0  0  0  0  0  0  0
    1.5000    0.0000    0.0000 C   0  0  0  0  0  0  0  0  0  0  0  0
    0.7500    1.2990    0.0000 C   0  0  0  0  0  0  0  0  0  0  0  0
   -0.7500    1.2990    0.0000 C   0  0  0  0  0  0  0  0  0  0  0  0
   -1.5000    2.5981    0.0000 O   0  0  0  0  0  0  0  0  0  0  0  0
   -0.7500    3.8971    0.0000 C   0  0  0  0  0  0  0  0  0  0  0  0
    0.7500    3.8971    0.0000 C   0  0  0  0  0  0  0  0  0  0  0  0
    1.5000    5.1962    0.0000 C   0  0  0  0  0  0  0  0  0  0  0  0
    3.0000    5.1962    0.0000 F   0  0  0  0  0  0  0  0  0  0  0  0
    0.7500    6.4952    0.0000 C   0  0  0  0  0  0  0  0  0  0  0  0
   -0.7500    6.4952    0.0000 C   0  0  0  0  0  0  0  0  0  0  0  0
   -1.5000    5.1962    0.0000 C   0  0  0  0  0  0  0  0  0  0  0  0
   -3.0000    5.1962    0.0000 Br  0  0  0  0  0  0  0  0  0  0  0  0
   -1.5000    0.0000    0.0000 C   0  0  0  0  0  0  0  0  0  0  0  0
   -0.7500   -1.2990    0.0000 C   0  0  0  0  0  0  0  0  0  0  0  0
    2.9918   -2.7549    0.0000 N   0  0  0  0  0  0  0  0  0  0  0  0
    3.3037   -4.2221    0.0000 O   0  0  0  0  0  0  0  0  0  0  0  0
    0.5488   -7.2139    0.0000 N   0  0  0  0  0  0  0  0  0  0  0  0
  1  2  2  0
  2  3  1  0
  2  4  1  0
  4  5  1  0
  5  6  1  0
  6  7  2  0
  7  8  1  0
  8  9  1  0
  9 10  2  0
 10 11  1  0
 11 12  1  0
 12 13  1  0
 13 14  1  0
 14 15  1  0
 15 16  1  0
 16 17  1  0
 17 18  2  0
 18 19  1  0
 19 20  1  0
 19 21  2  0
 21 22  1  0
 22 23  2  0
 23 24  1  0
 15 25  1  0
 25 26  1  0
 11 27  2  0
 27 28  1  0
  8 29  2  0
 29  5  1  0
 28  9  1  0
 26 12  1  0
 23 17  1  0
M  END
>  <Synonyms>  (563) 
MK-8245

>  <Research Codes>  (563) 
MK-8245

>  <Phase>  (563) 
1

>  <Applicants>  (563) 
nan

>  <USAN Stem>  (563) 
nan

>  <USAN Year>  (563) 
nan

>  <USAN Stem Definition>  (563) 
nan

>  <USAN Stem Substem>  (563) 
nan

>  <First Approval>  (563) 
nan

>  <ATC Codes>  (563) 
nan

>  <Level 4 ATC Codes>  (563) 
nan

>  <Level 3 ATC Codes>  (563) 
nan

>  <Level 2 ATC Codes>  (563) 
nan

>  <Level 1 ATC Codes>  (563) 
nan

>  <Indication Class>  (563) 
nan

>  <Patent>  (563) 
nan

>  <Drug Type>  (563) 
1:Synthetic Small Molecule

>  <Passes Rule of Five>  (563) 
True

>  <First In Class>  (563) 
False

>  <Chirality>  (563) 
Achiral Molecule

>  <Prodrug>  (563) 
False

>  <Oral>  (563) 
False

>  <Parenteral>  (563) 
False

>  <Topical>  (563) 
False

>  <Black Box>  (563) 
False

>  <Availability Type>  (563) 
Unknown

>  <Withdrawn Year>  (563) 
nan

>  <Withdrawn Reason>  (563) 
nan

>  <Withdrawn Country>  (563) 
nan

>  <Withdrawn Class>  (563) 
nan

>  <SMILES>  (563) 
O=C(O)Cn1nnc(-c2cc(N3CCC(Oc4cc(F)ccc4Br)CC3)no2)n1

>  <InChi Key>  (563) 
UJEAABFSXKCSGI-UHFFFAOYSA-N

$$$$
CHEMBL353972
     RDKit          2D

 16 18  0  0  0  0  0  0  0  0999 V2000
   -0.5402   -6.1486    0.0000 C   0  0  0  0  0  0  0  0  0  0  0  0
   -1.0037   -4.7220    0.0000 C   0  0  0  0  0  0  0  0  0  0  0  0
    0.0000   -3.6073    0.0000 C   0  0  0  0  0  0  0  0  0  0  0  0
    1.0037   -4.7220    0.0000 C   0  0  0  0  0  0  0  0  0  0  0  0
    2.4955   -4.5652    0.0000 C   0  0  0  0  0  0  0  0  0  0  0  0
    3.1056   -5.9355    0.0000 N   0  0  0  0  0  0  0  0  0  0  0  0
    1.9909   -6.9392    0.0000 C   0  0  0  0  0  0  0  0  0  0  0  0
    0.6918   -6.1892    0.0000 N   0  0  0  0  0  0  0  0  0  0  0  0
    1.2135   -2.7256    0.0000 C   0  0  0  0  0  0  0  0  0  0  0  0
    0.7500   -1.2990    0.0000 C   0  0  0  0  0  0  0  0  0  0  0  0
    1.5000    0.0000    0.0000 C   0  0  0  0  0  0  0  0  0  0  0  0
    0.7500    1.2990    0.0000 C   0  0  0  0  0  0  0  0  0  0  0  0
   -0.7500    1.2990    0.0000 C   0  0  0  0  0  0  0  0  0  0  0  0
   -1.5000    0.0000    0.0000 C   0  0  0  0  0  0  0  0  0  0  0  0
   -0.7500   -1.2990    0.0000 C   0  0  0  0  0  0  0  0  0  0  0  0
   -1.2135   -2.7256    0.0000 C   0  0  0  0  0  0  0  0  0  0  0  0
  1  2  1  0
  2  3  1  0
  3  4  1  0
  4  5  2  0
  5  6  1  0
  6  7  1  0
  7  8  2  0
  3  9  1  0
  9 10  1  0
 10 11  2  0
 11 12  1  0
 12 13  2  0
 13 14  1  0
 14 15  2  0
 15 16  1  0
 16  3  1  0
  8  4  1  0
 15 10  1  0
M  END
>  <Synonyms>  (564) 
ANTISEDAN|ATIPAMEZOLE|MPV-1248

>  <Research Codes>  (564) 
MPV-1248

>  <Phase>  (564) 
1

>  <Applicants>  (564) 
nan

>  <USAN Stem>  (564) 
nan

>  <USAN Year>  (564) 
1989.0

>  <USAN Stem Definition>  (564) 
nan

>  <USAN Stem Substem>  (564) 
nan

>  <First Approval>  (564) 
nan

>  <ATC Codes>  (564) 
nan

>  <Level 4 ATC Codes>  (564) 
nan

>  <Level 3 ATC Codes>  (564) 
nan

>  <Level 2 ATC Codes>  (564) 
nan

>  <Level 1 ATC Codes>  (564) 
nan

>  <Indication Class>  (564) 
Antagonist (alpha2-receptor)

>  <Patent>  (564) 
nan

>  <Drug Type>  (564) 
1:Synthetic Small Molecule

>  <Passes Rule of Five>  (564) 
True

>  <First In Class>  (564) 
False

>  <Chirality>  (564) 
Achiral Molecule

>  <Prodrug>  (564) 
False

>  <Oral>  (564) 
False

>  <Parenteral>  (564) 
False

>  <Topical>  (564) 
False

>  <Black Box>  (564) 
False

>  <Availability Type>  (564) 
Unknown

>  <Withdrawn Year>  (564) 
nan

>  <Withdrawn Reason>  (564) 
nan

>  <Withdrawn Country>  (564) 
nan

>  <Withdrawn Class>  (564) 
nan

>  <SMILES>  (564) 
CCC1(c2cnc[nH]2)Cc2ccccc2C1

>  <InChi Key>  (564) 
HSWPZIDYAHLZDD-UHFFFAOYSA-N

$$$$
CHEMBL225304
     RDKit          2D

  5  4  0  0  0  0  0  0  0  0999 V2000
   -1.2990   -2.2500    0.0000 N   0  0  0  0  0  0  0  0  0  0  0  0
   -0.0000   -1.5000    0.0000 N   0  0  0  0  0  0  0  0  0  0  0  0
    0.0000    0.0000    0.0000 C   0  0  0  0  0  0  0  0  0  0  0  0
    1.2990    0.7500    0.0000 N   0  0  0  0  0  0  0  0  0  0  0  0
   -1.2990    0.7500    0.0000 N   0  0  0  0  0  0  0  0  0  0  0  0
  1  2  1  0
  2  3  1  0
  3  4  2  0
  3  5  1  0
M  END
>  <Synonyms>  (565) 
AMINOGUANIDINE|Aminoguanidine|PIMAGEDINE

>  <Research Codes>  (565) 
nan

>  <Phase>  (565) 
1

>  <Applicants>  (565) 
nan

>  <USAN Stem>  (565) 
nan

>  <USAN Year>  (565) 
1993.0

>  <USAN Stem Definition>  (565) 
nan

>  <USAN Stem Substem>  (565) 
nan

>  <First Approval>  (565) 
nan

>  <ATC Codes>  (565) 
nan

>  <Level 4 ATC Codes>  (565) 
nan

>  <Level 3 ATC Codes>  (565) 
nan

>  <Level 2 ATC Codes>  (565) 
nan

>  <Level 1 ATC Codes>  (565) 
nan

>  <Indication Class>  (565) 
Inhibitor (advanced glycosylation end-product formation)

>  <Patent>  (565) 
nan

>  <Drug Type>  (565) 
1:Synthetic Small Molecule

>  <Passes Rule of Five>  (565) 
True

>  <First In Class>  (565) 
False

>  <Chirality>  (565) 
Achiral Molecule

>  <Prodrug>  (565) 
False

>  <Oral>  (565) 
False

>  <Parenteral>  (565) 
False

>  <Topical>  (565) 
False

>  <Black Box>  (565) 
False

>  <Availability Type>  (565) 
Unknown

>  <Withdrawn Year>  (565) 
nan

>  <Withdrawn Reason>  (565) 
nan

>  <Withdrawn Country>  (565) 
nan

>  <Withdrawn Class>  (565) 
nan

>  <SMILES>  (565) 
NN=C(N)N

>  <InChi Key>  (565) 
HAMNKKUPIHEESI-UHFFFAOYSA-N

$$$$
